 xtb: 6.7.1 (edcfbbe)
          09132601393D

 74 75  0     0  0            999 V2000
    0.0038   -0.2101   -0.3857 Co  0  0  0  0  0  0  0  0  0  0  0  0
    0.1543   -1.9449    0.2859 N   0  0  0  0  0  0  0  0  0  0  0  0
    1.4165   -2.6367    0.5014 C   0  0  0  0  0  0  0  0  0  0  0  0
    2.5654   -1.9953   -0.2721 C   0  0  0  0  0  0  0  0  0  0  0  0
    2.1869   -0.2002   -0.3630 P   0  0  0  0  0  0  0  0  0  0  0  0
    3.3290    0.4300   -1.7053 C   0  0  0  0  0  0  0  0  0  0  0  0
    4.6913   -0.2610   -1.7206 C   0  0  0  0  0  0  0  0  0  0  0  0
    2.6614    0.3103   -3.0709 C   0  0  0  0  0  0  0  0  0  0  0  0
    2.9920    0.6039    1.1220 C   0  0  0  0  0  0  0  0  0  0  0  0
    2.7417   -0.1800    2.4053 C   0  0  0  0  0  0  0  0  0  0  0  0
    2.4202    2.0157    1.2416 C   0  0  0  0  0  0  0  0  0  0  0  0
   -0.8514   -2.5823    1.1228 C   0  0  0  0  0  0  0  0  0  0  0  0
   -2.2548   -2.0585    0.8218 C   0  0  0  0  0  0  0  0  0  0  0  0
   -2.0637   -0.2980    0.3254 P   0  0  0  0  0  0  0  0  0  0  0  0
   -2.5023    0.6528    1.8724 C   0  0  0  0  0  0  0  0  0  0  0  0
   -2.6266    2.1438    1.5685 C   0  0  0  0  0  0  0  0  0  0  0  0
   -1.4055    0.4157    2.9062 C   0  0  0  0  0  0  0  0  0  0  0  0
   -3.5272    0.0266   -0.7850 C   0  0  0  0  0  0  0  0  0  0  0  0
   -4.8552   -0.4853   -0.2338 C   0  0  0  0  0  0  0  0  0  0  0  0
   -3.2377   -0.5583   -2.1650 C   0  0  0  0  0  0  0  0  0  0  0  0
    1.6613   -2.6572    1.5789 H   0  0  0  0  0  0  0  0  0  0  0  0
    1.3163   -3.6959    0.1980 H   0  0  0  0  0  0  0  0  0  0  0  0
    3.5355   -2.2136    0.1784 H   0  0  0  0  0  0  0  0  0  0  0  0
    2.5618   -2.3596   -1.3040 H   0  0  0  0  0  0  0  0  0  0  0  0
    3.4730    1.4954   -1.4842 H   0  0  0  0  0  0  0  0  0  0  0  0
    5.3596    0.2672   -2.3996 H   0  0  0  0  0  0  0  0  0  0  0  0
    4.5986   -1.2860   -2.0731 H   0  0  0  0  0  0  0  0  0  0  0  0
    5.1536   -0.2724   -0.7357 H   0  0  0  0  0  0  0  0  0  0  0  0
    3.2901    0.7547   -3.8415 H   0  0  0  0  0  0  0  0  0  0  0  0
    2.4995   -0.7350   -3.3263 H   0  0  0  0  0  0  0  0  0  0  0  0
    1.7000    0.8211   -3.0757 H   0  0  0  0  0  0  0  0  0  0  0  0
    4.0720    0.6657    0.9401 H   0  0  0  0  0  0  0  0  0  0  0  0
    3.0781    0.3951    3.2676 H   0  0  0  0  0  0  0  0  0  0  0  0
    3.2780   -1.1265    2.4008 H   0  0  0  0  0  0  0  0  0  0  0  0
    1.6779   -0.3793    2.5220 H   0  0  0  0  0  0  0  0  0  0  0  0
    1.3407    1.9641    1.3876 H   0  0  0  0  0  0  0  0  0  0  0  0
    2.8637    2.5420    2.0857 H   0  0  0  0  0  0  0  0  0  0  0  0
    2.6060    2.5965    0.3393 H   0  0  0  0  0  0  0  0  0  0  0  0
   -0.6130   -2.4375    2.1938 H   0  0  0  0  0  0  0  0  0  0  0  0
   -0.8319   -3.6754    0.9576 H   0  0  0  0  0  0  0  0  0  0  0  0
   -2.9292   -2.1847    1.6716 H   0  0  0  0  0  0  0  0  0  0  0  0
   -2.6570   -2.5939   -0.0410 H   0  0  0  0  0  0  0  0  0  0  0  0
   -3.4546    0.2713    2.2608 H   0  0  0  0  0  0  0  0  0  0  0  0
   -3.5026    2.3574    0.9606 H   0  0  0  0  0  0  0  0  0  0  0  0
   -2.7148    2.7104    2.4947 H   0  0  0  0  0  0  0  0  0  0  0  0
   -1.7418    2.4929    1.0363 H   0  0  0  0  0  0  0  0  0  0  0  0
   -1.5532    1.0499    3.7796 H   0  0  0  0  0  0  0  0  0  0  0  0
   -1.3938   -0.6206    3.2364 H   0  0  0  0  0  0  0  0  0  0  0  0
   -0.4364    0.6518    2.4637 H   0  0  0  0  0  0  0  0  0  0  0  0
   -3.5772    1.1173   -0.8908 H   0  0  0  0  0  0  0  0  0  0  0  0
   -4.8428   -1.5682   -0.1324 H   0  0  0  0  0  0  0  0  0  0  0  0
   -5.0844   -0.0455    0.7341 H   0  0  0  0  0  0  0  0  0  0  0  0
   -5.6595   -0.2220   -0.9200 H   0  0  0  0  0  0  0  0  0  0  0  0
   -2.3243   -0.1221   -2.5685 H   0  0  0  0  0  0  0  0  0  0  0  0
   -3.1064   -1.6376   -2.1176 H   0  0  0  0  0  0  0  0  0  0  0  0
   -4.0561   -0.3407   -2.8502 H   0  0  0  0  0  0  0  0  0  0  0  0
   -0.1934    1.2996   -1.1872 C   0  0  0  0  0  0  0  0  0  0  0  0
   -0.3441    2.3239   -1.7193 O   0  0  0  0  0  0  0  0  0  0  0  0
   -0.9260   -3.0661   -2.0554 O   0  0  0  0  0  0  0  0  0  0  0  0
   -0.2999   -2.3752   -3.1002 C   0  0  0  0  0  0  0  0  0  0  0  0
    0.9405   -3.0516   -3.6369 C   0  0  0  0  0  0  0  0  0  0  0  0
    1.5433   -2.5685   -4.7942 C   0  0  0  0  0  0  0  0  0  0  0  0
    2.7006   -3.1505   -5.2787 C   0  0  0  0  0  0  0  0  0  0  0  0
    3.2695   -4.2266   -4.6152 C   0  0  0  0  0  0  0  0  0  0  0  0
    2.6663   -4.7233   -3.4730 C   0  0  0  0  0  0  0  0  0  0  0  0
    1.5076   -4.1396   -2.9888 C   0  0  0  0  0  0  0  0  0  0  0  0
   -0.5397   -2.7030   -1.2169 H   0  0  0  0  0  0  0  0  0  0  0  0
   -0.0241   -1.3529   -2.7577 H   0  0  0  0  0  0  0  0  0  0  0  0
   -1.0273   -2.2664   -3.9153 H   0  0  0  0  0  0  0  0  0  0  0  0
    1.0997   -1.7298   -5.3135 H   0  0  0  0  0  0  0  0  0  0  0  0
    3.1614   -2.7643   -6.1767 H   0  0  0  0  0  0  0  0  0  0  0  0
    4.1751   -4.6791   -4.9929 H   0  0  0  0  0  0  0  0  0  0  0  0
    3.0981   -5.5689   -2.9558 H   0  0  0  0  0  0  0  0  0  0  0  0
    1.0245   -4.5350   -2.1073 H   0  0  0  0  0  0  0  0  0  0  0  0
  1  2  1  0  0  0  0
  2  3  1  0  0  0  0
  3  4  1  0  0  0  0
  1  5  1  0  0  0  0
  4  5  1  0  0  0  0
  5  6  1  0  0  0  0
  6  7  1  0  0  0  0
  6  8  1  0  0  0  0
  5  9  1  0  0  0  0
  9 10  1  0  0  0  0
  9 11  1  0  0  0  0
  2 12  1  0  0  0  0
 12 13  1  0  0  0  0
  1 14  1  0  0  0  0
 13 14  1  0  0  0  0
 14 15  1  0  0  0  0
 15 16  1  0  0  0  0
 15 17  1  0  0  0  0
 14 18  1  0  0  0  0
 18 19  1  0  0  0  0
 18 20  1  0  0  0  0
  3 21  1  0  0  0  0
  3 22  1  0  0  0  0
  4 23  1  0  0  0  0
  4 24  1  0  0  0  0
  6 25  1  0  0  0  0
  7 26  1  0  0  0  0
  7 27  1  0  0  0  0
  7 28  1  0  0  0  0
  8 29  1  0  0  0  0
  8 30  1  0  0  0  0
  8 31  1  0  0  0  0
  9 32  1  0  0  0  0
 10 33  1  0  0  0  0
 10 34  1  0  0  0  0
 10 35  1  0  0  0  0
 11 36  1  0  0  0  0
 11 37  1  0  0  0  0
 11 38  1  0  0  0  0
 12 39  1  0  0  0  0
 12 40  1  0  0  0  0
 13 41  1  0  0  0  0
 13 42  1  0  0  0  0
 15 43  1  0  0  0  0
 16 44  1  0  0  0  0
 16 45  1  0  0  0  0
 16 46  1  0  0  0  0
 17 47  1  0  0  0  0
 17 48  1  0  0  0  0
 17 49  1  0  0  0  0
 18 50  1  0  0  0  0
 19 51  1  0  0  0  0
 19 52  1  0  0  0  0
 19 53  1  0  0  0  0
 20 54  1  0  0  0  0
 20 55  1  0  0  0  0
 20 56  1  0  0  0  0
  1 57  2  0  0  0  0
 57 58  2  0  0  0  0
 59 60  1  0  0  0  0
 60 61  1  0  0  0  0
 61 62  4  0  0  0  0
 62 63  4  0  0  0  0
 63 64  4  0  0  0  0
 64 65  4  0  0  0  0
 61 66  4  0  0  0  0
 65 66  4  0  0  0  0
 59 67  1  0  0  0  0
 60 68  1  0  0  0  0
 60 69  1  0  0  0  0
 62 70  1  0  0  0  0
 63 71  1  0  0  0  0
 64 72  1  0  0  0  0
 65 73  1  0  0  0  0
 66 74  1  0  0  0  0
M  END
