 xtb: 6.7.1 (edcfbbe)
          09162613583D

 62 65  0     0  0            999 V2000
   -0.1192   -0.0330   -0.0598 Mn  0  0  0  0  0  0  0  0  0  0  0  0
   -0.6361    0.2720    2.2993 Br  0  0  0  0  0  0  0  0  0  0  0  0
    1.3767    2.9028   -0.0056 C   0  0  0  0  0  0  0  0  0  0  0  0
    1.6183    3.7805   -0.6069 H   0  0  0  0  0  0  0  0  0  0  0  0
    1.3660    3.1890    1.0528 H   0  0  0  0  0  0  0  0  0  0  0  0
    2.4102    1.8005   -0.2237 C   0  0  0  0  0  0  0  0  0  0  0  0
    2.4990    1.5628   -1.2905 H   0  0  0  0  0  0  0  0  0  0  0  0
    3.3974    2.1314    0.1363 H   0  0  0  0  0  0  0  0  0  0  0  0
    2.9476   -0.4845    0.5061 C   0  0  0  0  0  0  0  0  0  0  0  0
    3.8964   -0.1514    0.9556 H   0  0  0  0  0  0  0  0  0  0  0  0
    3.1495   -0.7922   -0.5268 H   0  0  0  0  0  0  0  0  0  0  0  0
    2.3570   -1.6424    1.3076 C   0  0  0  0  0  0  0  0  0  0  0  0
    2.1515   -1.3076    2.3299 H   0  0  0  0  0  0  0  0  0  0  0  0
    3.0321   -2.4977    1.3488 H   0  0  0  0  0  0  0  0  0  0  0  0
   -1.3926    3.2994    0.6942 C   0  0  0  0  0  0  0  0  0  0  0  0
   -1.1145    2.9285    1.6917 H   0  0  0  0  0  0  0  0  0  0  0  0
   -2.8601    2.9430    0.4646 C   0  0  0  0  0  0  0  0  0  0  0  0
   -3.4662    3.2876    1.3008 H   0  0  0  0  0  0  0  0  0  0  0  0
   -2.9816    1.8609    0.3792 H   0  0  0  0  0  0  0  0  0  0  0  0
   -3.2398    3.4048   -0.4444 H   0  0  0  0  0  0  0  0  0  0  0  0
   -1.1767    4.8108    0.6923 C   0  0  0  0  0  0  0  0  0  0  0  0
   -1.6302    5.2808   -0.1745 H   0  0  0  0  0  0  0  0  0  0  0  0
   -0.1227    5.0760    0.7248 H   0  0  0  0  0  0  0  0  0  0  0  0
   -1.6529    5.2262    1.5798 H   0  0  0  0  0  0  0  0  0  0  0  0
   -0.5062    2.7937   -2.1960 C   0  0  0  0  0  0  0  0  0  0  0  0
    0.3892    2.3487   -2.6585 H   0  0  0  0  0  0  0  0  0  0  0  0
   -1.7334    2.1482   -2.8388 C   0  0  0  0  0  0  0  0  0  0  0  0
   -2.6504    2.6182   -2.4916 H   0  0  0  0  0  0  0  0  0  0  0  0
   -1.7869    1.0852   -2.6019 H   0  0  0  0  0  0  0  0  0  0  0  0
   -1.6862    2.2538   -3.9217 H   0  0  0  0  0  0  0  0  0  0  0  0
   -0.4983    4.2935   -2.4812 C   0  0  0  0  0  0  0  0  0  0  0  0
   -0.3051    4.4508   -3.5419 H   0  0  0  0  0  0  0  0  0  0  0  0
    0.2661    4.8242   -1.9190 H   0  0  0  0  0  0  0  0  0  0  0  0
   -1.4668    4.7317   -2.2555 H   0  0  0  0  0  0  0  0  0  0  0  0
   -0.0324   -3.3374    1.6929 C   0  0  0  0  0  0  0  0  0  0  0  0
    0.2677   -4.3203    1.3081 H   0  0  0  0  0  0  0  0  0  0  0  0
    0.4263   -3.2265    3.1446 C   0  0  0  0  0  0  0  0  0  0  0  0
    0.2012   -2.2436    3.5532 H   0  0  0  0  0  0  0  0  0  0  0  0
    1.4912   -3.4256    3.2459 H   0  0  0  0  0  0  0  0  0  0  0  0
   -0.1114   -3.9629    3.7403 H   0  0  0  0  0  0  0  0  0  0  0  0
   -1.5558   -3.2348    1.6034 C   0  0  0  0  0  0  0  0  0  0  0  0
   -2.0213   -4.0799    2.1086 H   0  0  0  0  0  0  0  0  0  0  0  0
   -1.8924   -3.2238    0.5665 H   0  0  0  0  0  0  0  0  0  0  0  0
   -1.9057   -2.3236    2.0838 H   0  0  0  0  0  0  0  0  0  0  0  0
    1.2806   -3.1718   -0.9008 C   0  0  0  0  0  0  0  0  0  0  0  0
    1.7552   -2.4762   -1.6063 H   0  0  0  0  0  0  0  0  0  0  0  0
    2.2861   -4.2754   -0.5771 C   0  0  0  0  0  0  0  0  0  0  0  0
    1.9546   -4.9036    0.2471 H   0  0  0  0  0  0  0  0  0  0  0  0
    3.2650   -3.8687   -0.3333 H   0  0  0  0  0  0  0  0  0  0  0  0
    2.4036   -4.9122   -1.4529 H   0  0  0  0  0  0  0  0  0  0  0  0
    0.0363   -3.7415   -1.5827 C   0  0  0  0  0  0  0  0  0  0  0  0
    0.2940   -4.1605   -2.5542 H   0  0  0  0  0  0  0  0  0  0  0  0
   -0.7042   -2.9534   -1.7391 H   0  0  0  0  0  0  0  0  0  0  0  0
   -0.4150   -4.5289   -0.9820 H   0  0  0  0  0  0  0  0  0  0  0  0
   -1.7428   -0.5418   -0.5072 C   0  0  0  0  0  0  0  0  0  0  0  0
    0.3122   -0.2746   -1.7339 C   0  0  0  0  0  0  0  0  0  0  0  0
    1.9687    0.6026    0.4880 N   0  0  0  0  0  0  0  0  0  0  0  0
   -2.7903   -0.8987   -0.8752 O   0  0  0  0  0  0  0  0  0  0  0  0
    0.5385   -0.4592   -2.8622 O   0  0  0  0  0  0  0  0  0  0  0  0
   -0.3182    2.2460   -0.4144 P   0  0  0  0  0  0  0  0  0  0  0  0
    0.7324   -2.0857    0.5259 P   0  0  0  0  0  0  0  0  0  0  0  0
    1.8246    0.8786    1.4679 H   0  0  0  0  0  0  0  0  0  0  0  0
  1  2  1  0  0  0  0
  3  4  1  0  0  0  0
  3  5  1  0  0  0  0
  3  6  1  0  0  0  0
  6  7  1  0  0  0  0
  6  8  1  0  0  0  0
  9 10  1  0  0  0  0
  9 11  1  0  0  0  0
  9 12  1  0  0  0  0
 12 13  1  0  0  0  0
 12 14  1  0  0  0  0
 15 16  1  0  0  0  0
 15 17  1  0  0  0  0
 17 18  1  0  0  0  0
 17 19  1  0  0  0  0
 17 20  1  0  0  0  0
 15 21  1  0  0  0  0
 21 22  1  0  0  0  0
 21 23  1  0  0  0  0
 21 24  1  0  0  0  0
 25 26  1  0  0  0  0
 25 27  1  0  0  0  0
 27 28  1  0  0  0  0
 27 29  1  0  0  0  0
 27 30  1  0  0  0  0
 25 31  1  0  0  0  0
 31 32  1  0  0  0  0
 31 33  1  0  0  0  0
 31 34  1  0  0  0  0
 35 36  1  0  0  0  0
 35 37  1  0  0  0  0
 37 38  1  0  0  0  0
 37 39  1  0  0  0  0
 37 40  1  0  0  0  0
 35 41  1  0  0  0  0
 41 42  1  0  0  0  0
 41 43  1  0  0  0  0
 41 44  1  0  0  0  0
 45 46  1  0  0  0  0
 45 47  1  0  0  0  0
 47 48  1  0  0  0  0
 47 49  1  0  0  0  0
 47 50  1  0  0  0  0
 45 51  1  0  0  0  0
 51 52  1  0  0  0  0
 51 53  1  0  0  0  0
 51 54  1  0  0  0  0
  1 55  2  0  0  0  0
  1 56  2  0  0  0  0
  1 57  1  0  0  0  0
  6 57  1  0  0  0  0
  9 57  1  0  0  0  0
  1 58  1  0  0  0  0
 55 58  2  0  0  0  0
  1 59  1  0  0  0  0
 56 59  2  0  0  0  0
  1 60  1  0  0  0  0
  3 60  1  0  0  0  0
 15 60  1  0  0  0  0
 25 60  1  0  0  0  0
  1 61  1  0  0  0  0
 12 61  1  0  0  0  0
 35 61  1  0  0  0  0
 45 61  1  0  0  0  0
 57 62  1  0  0  0  0
M  END
