 xtb: 6.7.1 (edcfbbe)
          09132601183D

 79 85  0     0  0            999 V2000
   -0.3348   -0.6418   -0.4584 Ru  0  0  0  0  0  0  0  0  0  0  0  0
   -0.1709   -2.7937    0.2752 N   0  0  0  0  0  0  0  0  0  0  0  0
    1.0424   -3.1482    0.7885 C   0  0  0  0  0  0  0  0  0  0  0  0
    2.1195   -2.3407    0.7071 C   0  0  0  0  0  0  0  0  0  0  0  0
    1.9147   -0.6897    0.0049 P   0  0  0  0  0  0  0  0  0  0  0  0
    2.7275    0.4093    1.2123 C   0  0  0  0  0  0  0  0  0  0  0  0
    2.0543    1.5450    1.6446 C   0  0  0  0  0  0  0  0  0  0  0  0
    2.6655    2.4172    2.5274 C   0  0  0  0  0  0  0  0  0  0  0  0
    3.9420    2.1483    2.9925 C   0  0  0  0  0  0  0  0  0  0  0  0
    4.6142    1.0129    2.5669 C   0  0  0  0  0  0  0  0  0  0  0  0
    4.0150    0.1472    1.6708 C   0  0  0  0  0  0  0  0  0  0  0  0
    3.1507   -0.6335   -1.3380 C   0  0  0  0  0  0  0  0  0  0  0  0
    3.6145    0.6064   -1.7694 C   0  0  0  0  0  0  0  0  0  0  0  0
    4.4898    0.6867   -2.8355 C   0  0  0  0  0  0  0  0  0  0  0  0
    4.9029   -0.4679   -3.4832 C   0  0  0  0  0  0  0  0  0  0  0  0
    4.4326   -1.7026   -3.0674 C   0  0  0  0  0  0  0  0  0  0  0  0
    3.5545   -1.7862   -2.0013 C   0  0  0  0  0  0  0  0  0  0  0  0
   -1.3489   -3.6301    0.3345 C   0  0  0  0  0  0  0  0  0  0  0  0
   -2.5876   -2.7606    0.5910 C   0  0  0  0  0  0  0  0  0  0  0  0
   -2.5421   -1.2362   -0.4818 P   0  0  0  0  0  0  0  0  0  0  0  0
   -3.9156   -0.2784    0.2317 C   0  0  0  0  0  0  0  0  0  0  0  0
   -5.2223   -0.7590    0.2076 C   0  0  0  0  0  0  0  0  0  0  0  0
   -6.2389   -0.0069    0.7665 C   0  0  0  0  0  0  0  0  0  0  0  0
   -5.9591    1.2233    1.3429 C   0  0  0  0  0  0  0  0  0  0  0  0
   -4.6609    1.7072    1.3571 C   0  0  0  0  0  0  0  0  0  0  0  0
   -3.6381    0.9591    0.7998 C   0  0  0  0  0  0  0  0  0  0  0  0
   -3.2935   -1.7344   -2.0697 C   0  0  0  0  0  0  0  0  0  0  0  0
   -3.4022   -0.6956   -2.9937 C   0  0  0  0  0  0  0  0  0  0  0  0
   -3.9350   -0.9246   -4.2463 C   0  0  0  0  0  0  0  0  0  0  0  0
   -4.3561   -2.2004   -4.5930 C   0  0  0  0  0  0  0  0  0  0  0  0
   -4.2410   -3.2380   -3.6842 C   0  0  0  0  0  0  0  0  0  0  0  0
   -3.7115   -3.0108   -2.4238 C   0  0  0  0  0  0  0  0  0  0  0  0
    1.0887   -4.1092    1.2921 H   0  0  0  0  0  0  0  0  0  0  0  0
   -0.5611   -0.2696    1.0531 H   0  0  0  0  0  0  0  0  0  0  0  0
    3.0785   -2.6464    1.1020 H   0  0  0  0  0  0  0  0  0  0  0  0
    1.9189   -1.7920    3.4863 H   0  0  0  0  0  0  0  0  0  0  0  0
    1.0541    1.7288    1.2699 H   0  0  0  0  0  0  0  0  0  0  0  0
    2.1451    3.3048    2.8550 H   0  0  0  0  0  0  0  0  0  0  0  0
    4.4184    2.8268    3.6847 H   0  0  0  0  0  0  0  0  0  0  0  0
    5.6122    0.8078    2.9274 H   0  0  0  0  0  0  0  0  0  0  0  0
    4.5488   -0.7246    1.3149 H   0  0  0  0  0  0  0  0  0  0  0  0
    3.2746    1.5009   -1.2619 H   0  0  0  0  0  0  0  0  0  0  0  0
    4.8494    1.6503   -3.1670 H   0  0  0  0  0  0  0  0  0  0  0  0
    5.5868   -0.4047   -4.3170 H   0  0  0  0  0  0  0  0  0  0  0  0
    4.7480   -2.6022   -3.5772 H   0  0  0  0  0  0  0  0  0  0  0  0
    3.1795   -2.7509   -1.6785 H   0  0  0  0  0  0  0  0  0  0  0  0
   -1.4700   -4.1922   -0.6083 H   0  0  0  0  0  0  0  0  0  0  0  0
   -1.2309   -4.3483    1.1534 H   0  0  0  0  0  0  0  0  0  0  0  0
   -3.5140   -3.3257    0.4604 H   0  0  0  0  0  0  0  0  0  0  0  0
   -2.5535   -2.3869    1.6218 H   0  0  0  0  0  0  0  0  0  0  0  0
   -5.4405   -1.7124   -0.2555 H   0  0  0  0  0  0  0  0  0  0  0  0
   -7.2535   -0.3780    0.7503 H   0  0  0  0  0  0  0  0  0  0  0  0
   -6.7581    1.8069    1.7765 H   0  0  0  0  0  0  0  0  0  0  0  0
   -4.4460    2.6692    1.7992 H   0  0  0  0  0  0  0  0  0  0  0  0
   -2.6141    1.3149    0.7901 H   0  0  0  0  0  0  0  0  0  0  0  0
   -3.0477    0.2895   -2.7069 H   0  0  0  0  0  0  0  0  0  0  0  0
   -4.0176   -0.1143   -4.9560 H   0  0  0  0  0  0  0  0  0  0  0  0
   -4.7691   -2.3856   -5.5736 H   0  0  0  0  0  0  0  0  0  0  0  0
   -4.5640   -4.2331   -3.9558 H   0  0  0  0  0  0  0  0  0  0  0  0
   -3.6305   -3.8362   -1.7298 H   0  0  0  0  0  0  0  0  0  0  0  0
   -0.0734   -0.9024   -2.2637 C   0  0  0  0  0  0  0  0  0  0  0  0
    0.0958   -1.0806   -3.3969 O   0  0  0  0  0  0  0  0  0  0  0  0
   -0.4781    0.8818   -0.7431 H   0  0  0  0  0  0  0  0  0  0  0  0
   -0.1221   -2.0635    3.3595 O   0  0  0  0  0  0  0  0  0  0  0  0
    1.0040   -1.6460    4.0868 C   0  0  0  0  0  0  0  0  0  0  0  0
    0.9718   -0.2130    4.5637 C   0  0  0  0  0  0  0  0  0  0  0  0
    2.0692    0.2849    5.2576 C   0  0  0  0  0  0  0  0  0  0  0  0
    2.0753    1.5863    5.7213 C   0  0  0  0  0  0  0  0  0  0  0  0
    0.9865    2.4114    5.4884 C   0  0  0  0  0  0  0  0  0  0  0  0
   -0.1060    1.9239    4.7943 C   0  0  0  0  0  0  0  0  0  0  0  0
   -0.1164    0.6162    4.3378 C   0  0  0  0  0  0  0  0  0  0  0  0
   -0.0870   -2.2886   -0.6600 H   0  0  0  0  0  0  0  0  0  0  0  0
    1.0610   -2.3160    4.9529 H   0  0  0  0  0  0  0  0  0  0  0  0
   -0.2109   -1.4676    2.5972 H   0  0  0  0  0  0  0  0  0  0  0  0
    2.9205   -0.3580    5.4343 H   0  0  0  0  0  0  0  0  0  0  0  0
    2.9310    1.9586    6.2659 H   0  0  0  0  0  0  0  0  0  0  0  0
    0.9911    3.4297    5.8496 H   0  0  0  0  0  0  0  0  0  0  0  0
   -0.9591    2.5601    4.6079 H   0  0  0  0  0  0  0  0  0  0  0  0
   -0.9831    0.2421    3.8121 H   0  0  0  0  0  0  0  0  0  0  0  0
  1  2  1  0  0  0  0
  2  3  1  0  0  0  0
  3  4  2  0  0  0  0
  1  5  1  0  0  0  0
  4  5  1  0  0  0  0
  5  6  1  0  0  0  0
  6  7  4  0  0  0  0
  7  8  4  0  0  0  0
  8  9  4  0  0  0  0
  9 10  4  0  0  0  0
  6 11  4  0  0  0  0
 10 11  4  0  0  0  0
  5 12  1  0  0  0  0
 12 13  4  0  0  0  0
 13 14  4  0  0  0  0
 14 15  4  0  0  0  0
 15 16  4  0  0  0  0
 12 17  4  0  0  0  0
 16 17  4  0  0  0  0
  2 18  1  0  0  0  0
 18 19  1  0  0  0  0
  1 20  1  0  0  0  0
 19 20  1  0  0  0  0
 20 21  1  0  0  0  0
 21 22  4  0  0  0  0
 22 23  4  0  0  0  0
 23 24  4  0  0  0  0
 24 25  4  0  0  0  0
 21 26  4  0  0  0  0
 25 26  4  0  0  0  0
 20 27  1  0  0  0  0
 27 28  4  0  0  0  0
 28 29  4  0  0  0  0
 29 30  4  0  0  0  0
 30 31  4  0  0  0  0
 27 32  4  0  0  0  0
 31 32  4  0  0  0  0
  3 33  1  0  0  0  0
  1 34  1  0  0  0  0
  4 35  1  0  0  0  0
  7 37  1  0  0  0  0
  8 38  1  0  0  0  0
  9 39  1  0  0  0  0
 10 40  1  0  0  0  0
 11 41  1  0  0  0  0
 13 42  1  0  0  0  0
 14 43  1  0  0  0  0
 15 44  1  0  0  0  0
 16 45  1  0  0  0  0
 17 46  1  0  0  0  0
 18 47  1  0  0  0  0
 18 48  1  0  0  0  0
 19 49  1  0  0  0  0
 19 50  1  0  0  0  0
 22 51  1  0  0  0  0
 23 52  1  0  0  0  0
 24 53  1  0  0  0  0
 25 54  1  0  0  0  0
 26 55  1  0  0  0  0
 28 56  1  0  0  0  0
 29 57  1  0  0  0  0
 30 58  1  0  0  0  0
 31 59  1  0  0  0  0
 32 60  1  0  0  0  0
  1 61  2  0  0  0  0
  1 62  1  0  0  0  0
 61 62  2  0  0  0  0
  1 63  1  0  0  0  0
 36 65  1  0  0  0  0
 64 65  1  0  0  0  0
 65 66  1  0  0  0  0
 66 67  4  0  0  0  0
 67 68  4  0  0  0  0
 68 69  4  0  0  0  0
 69 70  4  0  0  0  0
 66 71  4  0  0  0  0
 70 71  4  0  0  0  0
  2 72  1  0  0  0  0
 65 73  1  0  0  0  0
 64 74  1  0  0  0  0
 67 75  1  0  0  0  0
 68 76  1  0  0  0  0
 69 77  1  0  0  0  0
 70 78  1  0  0  0  0
 71 79  1  0  0  0  0
M  END
