 xtb: 6.7.1 (edcfbbe)
          09132601393D

 78 83  0     0  0            999 V2000
   -0.0234   -0.4273   -0.1209 Co  0  0  0  0  0  0  0  0  0  0  0  0
    0.3198   -2.1444    0.4680 N   0  0  0  0  0  0  0  0  0  0  0  0
    1.4899   -2.9412    0.1634 C   0  0  0  0  0  0  0  0  0  0  0  0
    2.3597   -2.2640   -0.8906 C   0  0  0  0  0  0  0  0  0  0  0  0
    2.1018   -0.4794   -0.5669 P   0  0  0  0  0  0  0  0  0  0  0  0
    3.0676   -0.2375    0.9576 C   0  0  0  0  0  0  0  0  0  0  0  0
    2.3758    0.0545    2.1263 C   0  0  0  0  0  0  0  0  0  0  0  0
    3.0557    0.1949    3.3228 C   0  0  0  0  0  0  0  0  0  0  0  0
    4.4329    0.0436    3.3533 C   0  0  0  0  0  0  0  0  0  0  0  0
    5.1283   -0.2441    2.1883 C   0  0  0  0  0  0  0  0  0  0  0  0
    4.4508   -0.3843    0.9907 C   0  0  0  0  0  0  0  0  0  0  0  0
    3.1361    0.3924   -1.7855 C   0  0  0  0  0  0  0  0  0  0  0  0
    3.5660    1.6795   -1.4694 C   0  0  0  0  0  0  0  0  0  0  0  0
    4.3422    2.3953   -2.3601 C   0  0  0  0  0  0  0  0  0  0  0  0
    4.6867    1.8376   -3.5814 C   0  0  0  0  0  0  0  0  0  0  0  0
    4.2381    0.5705   -3.9135 C   0  0  0  0  0  0  0  0  0  0  0  0
    3.4589   -0.1491   -3.0251 C   0  0  0  0  0  0  0  0  0  0  0  0
   -0.5617   -2.9080    1.3269 C   0  0  0  0  0  0  0  0  0  0  0  0
   -1.7071   -2.0377    1.8367 C   0  0  0  0  0  0  0  0  0  0  0  0
   -2.0509   -0.9661    0.3920 P   0  0  0  0  0  0  0  0  0  0  0  0
   -3.3553    0.1994    0.8933 C   0  0  0  0  0  0  0  0  0  0  0  0
   -3.7701    0.3940    2.2054 C   0  0  0  0  0  0  0  0  0  0  0  0
   -4.7406    1.3397    2.4919 C   0  0  0  0  0  0  0  0  0  0  0  0
   -5.2959    2.1012    1.4773 C   0  0  0  0  0  0  0  0  0  0  0  0
   -4.8785    1.9196    0.1672 C   0  0  0  0  0  0  0  0  0  0  0  0
   -3.9113    0.9771   -0.1212 C   0  0  0  0  0  0  0  0  0  0  0  0
   -2.9923   -2.1123   -0.6701 C   0  0  0  0  0  0  0  0  0  0  0  0
   -2.3400   -2.7545   -1.7155 C   0  0  0  0  0  0  0  0  0  0  0  0
   -3.0169   -3.6782   -2.4929 C   0  0  0  0  0  0  0  0  0  0  0  0
   -4.3464   -3.9643   -2.2298 C   0  0  0  0  0  0  0  0  0  0  0  0
   -4.9991   -3.3274   -1.1851 C   0  0  0  0  0  0  0  0  0  0  0  0
   -4.3270   -2.4049   -0.4044 C   0  0  0  0  0  0  0  0  0  0  0  0
    1.1891   -3.9472   -0.1866 H   0  0  0  0  0  0  0  0  0  0  0  0
    2.0887   -3.0954    1.0841 H   0  0  0  0  0  0  0  0  0  0  0  0
    1.9774   -2.4863   -1.8888 H   0  0  0  0  0  0  0  0  0  0  0  0
    3.4109   -2.5553   -0.8204 H   0  0  0  0  0  0  0  0  0  0  0  0
    1.2939    0.1627    2.0725 H   0  0  0  0  0  0  0  0  0  0  0  0
    2.5161    0.4224    4.2313 H   0  0  0  0  0  0  0  0  0  0  0  0
    4.9675    0.1509    4.2863 H   0  0  0  0  0  0  0  0  0  0  0  0
    6.2025   -0.3599    2.2164 H   0  0  0  0  0  0  0  0  0  0  0  0
    4.9914   -0.6014    0.0784 H   0  0  0  0  0  0  0  0  0  0  0  0
    3.2897    2.1083   -0.5142 H   0  0  0  0  0  0  0  0  0  0  0  0
    4.6804    3.3892   -2.1036 H   0  0  0  0  0  0  0  0  0  0  0  0
    5.2981    2.3939   -4.2768 H   0  0  0  0  0  0  0  0  0  0  0  0
    4.4937    0.1413   -4.8715 H   0  0  0  0  0  0  0  0  0  0  0  0
    3.0994   -1.1297   -3.2990 H   0  0  0  0  0  0  0  0  0  0  0  0
   -0.9853   -3.7731    0.7770 H   0  0  0  0  0  0  0  0  0  0  0  0
    0.0065   -3.3261    2.1794 H   0  0  0  0  0  0  0  0  0  0  0  0
   -2.5734   -2.6233    2.1561 H   0  0  0  0  0  0  0  0  0  0  0  0
   -1.3593   -1.4031    2.6570 H   0  0  0  0  0  0  0  0  0  0  0  0
   -3.3416   -0.1930    3.0052 H   0  0  0  0  0  0  0  0  0  0  0  0
   -5.0635    1.4840    3.5133 H   0  0  0  0  0  0  0  0  0  0  0  0
   -6.0507    2.8393    1.7067 H   0  0  0  0  0  0  0  0  0  0  0  0
   -5.3064    2.5167   -0.6254 H   0  0  0  0  0  0  0  0  0  0  0  0
   -3.5734    0.8281   -1.1398 H   0  0  0  0  0  0  0  0  0  0  0  0
   -1.3010   -2.5248   -1.9129 H   0  0  0  0  0  0  0  0  0  0  0  0
   -2.5055   -4.1737   -3.3059 H   0  0  0  0  0  0  0  0  0  0  0  0
   -4.8765   -4.6839   -2.8373 H   0  0  0  0  0  0  0  0  0  0  0  0
   -6.0359   -3.5527   -0.9783 H   0  0  0  0  0  0  0  0  0  0  0  0
   -4.8377   -1.9077    0.4099 H   0  0  0  0  0  0  0  0  0  0  0  0
   -0.3477    1.2449   -0.3762 C   0  0  0  0  0  0  0  0  0  0  0  0
   -0.6147    2.3777   -0.4089 O   0  0  0  0  0  0  0  0  0  0  0  0
    0.2604   -1.2924   -3.1933 O   0  0  0  0  0  0  0  0  0  0  0  0
   -0.2861   -0.5680   -4.2729 C   0  0  0  0  0  0  0  0  0  0  0  0
    0.5532    0.6229   -4.6700 C   0  0  0  0  0  0  0  0  0  0  0  0
    0.6674    1.7070   -3.8084 C   0  0  0  0  0  0  0  0  0  0  0  0
    1.4393    2.8012   -4.1516 C   0  0  0  0  0  0  0  0  0  0  0  0
    2.1054    2.8263   -5.3652 C   0  0  0  0  0  0  0  0  0  0  0  0
    2.0005    1.7495   -6.2283 C   0  0  0  0  0  0  0  0  0  0  0  0
    1.2317    0.6519   -5.8804 C   0  0  0  0  0  0  0  0  0  0  0  0
    0.2164   -0.7430   -2.3825 H   0  0  0  0  0  0  0  0  0  0  0  0
   -0.3460   -1.2795   -5.1020 H   0  0  0  0  0  0  0  0  0  0  0  0
   -1.3065   -0.2356   -4.0263 H   0  0  0  0  0  0  0  0  0  0  0  0
    0.1422    1.6959   -2.8643 H   0  0  0  0  0  0  0  0  0  0  0  0
    1.5169    3.6359   -3.4702 H   0  0  0  0  0  0  0  0  0  0  0  0
    2.7038    3.6837   -5.6370 H   0  0  0  0  0  0  0  0  0  0  0  0
    2.5192    1.7637   -7.1764 H   0  0  0  0  0  0  0  0  0  0  0  0
    1.1539   -0.1876   -6.5572 H   0  0  0  0  0  0  0  0  0  0  0  0
  1  2  1  0  0  0  0
  2  3  1  0  0  0  0
  3  4  1  0  0  0  0
  1  5  1  0  0  0  0
  4  5  1  0  0  0  0
  5  6  1  0  0  0  0
  6  7  4  0  0  0  0
  7  8  4  0  0  0  0
  8  9  4  0  0  0  0
  9 10  4  0  0  0  0
  6 11  4  0  0  0  0
 10 11  4  0  0  0  0
  5 12  1  0  0  0  0
 12 13  4  0  0  0  0
 13 14  4  0  0  0  0
 14 15  4  0  0  0  0
 15 16  4  0  0  0  0
 12 17  4  0  0  0  0
 16 17  4  0  0  0  0
  2 18  1  0  0  0  0
 18 19  1  0  0  0  0
  1 20  1  0  0  0  0
 19 20  1  0  0  0  0
 20 21  1  0  0  0  0
 21 22  4  0  0  0  0
 22 23  4  0  0  0  0
 23 24  4  0  0  0  0
 24 25  4  0  0  0  0
 21 26  4  0  0  0  0
 25 26  4  0  0  0  0
 20 27  1  0  0  0  0
 27 28  4  0  0  0  0
 28 29  4  0  0  0  0
 29 30  4  0  0  0  0
 30 31  4  0  0  0  0
 27 32  4  0  0  0  0
 31 32  4  0  0  0  0
  3 33  1  0  0  0  0
  3 34  1  0  0  0  0
  4 35  1  0  0  0  0
  4 36  1  0  0  0  0
  7 37  1  0  0  0  0
  8 38  1  0  0  0  0
  9 39  1  0  0  0  0
 10 40  1  0  0  0  0
 11 41  1  0  0  0  0
 13 42  1  0  0  0  0
 14 43  1  0  0  0  0
 15 44  1  0  0  0  0
 16 45  1  0  0  0  0
 17 46  1  0  0  0  0
 18 47  1  0  0  0  0
 18 48  1  0  0  0  0
 19 49  1  0  0  0  0
 19 50  1  0  0  0  0
 22 51  1  0  0  0  0
 23 52  1  0  0  0  0
 24 53  1  0  0  0  0
 25 54  1  0  0  0  0
 26 55  1  0  0  0  0
 28 56  1  0  0  0  0
 29 57  1  0  0  0  0
 30 58  1  0  0  0  0
 31 59  1  0  0  0  0
 32 60  1  0  0  0  0
  1 61  2  0  0  0  0
 61 62  2  0  0  0  0
 63 64  1  0  0  0  0
 64 65  1  0  0  0  0
 65 66  4  0  0  0  0
 66 67  4  0  0  0  0
 67 68  4  0  0  0  0
 68 69  4  0  0  0  0
 65 70  4  0  0  0  0
 69 70  4  0  0  0  0
 63 71  1  0  0  0  0
 64 72  1  0  0  0  0
 64 73  1  0  0  0  0
 66 74  1  0  0  0  0
 67 75  1  0  0  0  0
 68 76  1  0  0  0  0
 69 77  1  0  0  0  0
 70 78  1  0  0  0  0
M  END
