 xtb: 6.7.1 (edcfbbe)
          09132603033D

 75 77  0     0  0            999 V2000
    0.2900   -0.5388   -0.6251 Ru  0  0  0  0  0  0  0  0  0  0  0  0
    0.7723   -2.5025    0.2374 N   0  0  0  0  0  0  0  0  0  0  0  0
    2.2052   -2.7786    0.3037 C   0  0  0  0  0  0  0  0  0  0  0  0
    2.9202   -1.5746    0.9140 C   0  0  0  0  0  0  0  0  0  0  0  0
    2.4744   -0.0873   -0.1248 P   0  0  0  0  0  0  0  0  0  0  0  0
    3.7630   -0.2157   -1.4861 C   0  0  0  0  0  0  0  0  0  0  0  0
    5.2191   -0.3861   -1.0593 C   0  0  0  0  0  0  0  0  0  0  0  0
    3.6022    0.9859   -2.4149 C   0  0  0  0  0  0  0  0  0  0  0  0
    3.0771    1.3845    0.8686 C   0  0  0  0  0  0  0  0  0  0  0  0
    2.2199    2.5820    0.4620 C   0  0  0  0  0  0  0  0  0  0  0  0
    2.9787    1.1673    2.3750 C   0  0  0  0  0  0  0  0  0  0  0  0
   -0.0035   -3.5830   -0.3696 C   0  0  0  0  0  0  0  0  0  0  0  0
   -1.4880   -3.2627   -0.2284 C   0  0  0  0  0  0  0  0  0  0  0  0
   -1.7946   -1.4950   -0.7724 P   0  0  0  0  0  0  0  0  0  0  0  0
   -3.2682   -1.1329    0.3358 C   0  0  0  0  0  0  0  0  0  0  0  0
   -3.9811    0.1467   -0.0967 C   0  0  0  0  0  0  0  0  0  0  0  0
   -2.8309   -0.9852    1.7910 C   0  0  0  0  0  0  0  0  0  0  0  0
   -2.6825   -1.6971   -2.4194 C   0  0  0  0  0  0  0  0  0  0  0  0
   -2.5623   -0.3789   -3.1834 C   0  0  0  0  0  0  0  0  0  0  0  0
   -2.1382   -2.8281   -3.2907 C   0  0  0  0  0  0  0  0  0  0  0  0
    2.5750   -2.9650   -0.7141 H   0  0  0  0  0  0  0  0  0  0  0  0
    2.3988   -3.6837    0.9049 H   0  0  0  0  0  0  0  0  0  0  0  0
    2.5212   -1.4039    1.9174 H   0  0  0  0  0  0  0  0  0  0  0  0
    3.9955   -1.7429    0.9882 H   0  0  0  0  0  0  0  0  0  0  0  0
    3.4645   -1.1131   -2.0463 H   0  0  0  0  0  0  0  0  0  0  0  0
    5.8545   -0.3310   -1.9431 H   0  0  0  0  0  0  0  0  0  0  0  0
    5.5349    0.3974   -0.3743 H   0  0  0  0  0  0  0  0  0  0  0  0
    5.3938   -1.3514   -0.5893 H   0  0  0  0  0  0  0  0  0  0  0  0
    2.5417    1.1677   -2.6057 H   0  0  0  0  0  0  0  0  0  0  0  0
    4.0984    0.8035   -3.3676 H   0  0  0  0  0  0  0  0  0  0  0  0
    4.0364    1.8787   -1.9693 H   0  0  0  0  0  0  0  0  0  0  0  0
    4.1221    1.5800    0.6005 H   0  0  0  0  0  0  0  0  0  0  0  0
    2.5239    3.4753    1.0064 H   0  0  0  0  0  0  0  0  0  0  0  0
    2.2963    2.7787   -0.6055 H   0  0  0  0  0  0  0  0  0  0  0  0
    1.1748    2.3649    0.6816 H   0  0  0  0  0  0  0  0  0  0  0  0
    3.1875    2.1017    2.8948 H   0  0  0  0  0  0  0  0  0  0  0  0
    1.9699    0.8555    2.6392 H   0  0  0  0  0  0  0  0  0  0  0  0
    3.6900    0.4218    2.7262 H   0  0  0  0  0  0  0  0  0  0  0  0
    0.2213   -4.5444    0.1230 H   0  0  0  0  0  0  0  0  0  0  0  0
    0.2758   -3.6707   -1.4275 H   0  0  0  0  0  0  0  0  0  0  0  0
   -1.7567   -3.3395    0.8285 H   0  0  0  0  0  0  0  0  0  0  0  0
   -2.1031   -3.9707   -0.7848 H   0  0  0  0  0  0  0  0  0  0  0  0
   -3.9482   -1.9927    0.2411 H   0  0  0  0  0  0  0  0  0  0  0  0
   -4.4905    0.0255   -1.0490 H   0  0  0  0  0  0  0  0  0  0  0  0
   -3.2529    0.9545   -0.1803 H   0  0  0  0  0  0  0  0  0  0  0  0
   -4.7248    0.4289    0.6486 H   0  0  0  0  0  0  0  0  0  0  0  0
   -2.3040   -1.8652    2.1617 H   0  0  0  0  0  0  0  0  0  0  0  0
   -3.6996   -0.8177    2.4277 H   0  0  0  0  0  0  0  0  0  0  0  0
   -2.1649   -0.1273    1.8757 H   0  0  0  0  0  0  0  0  0  0  0  0
   -3.7384   -1.9031   -2.1981 H   0  0  0  0  0  0  0  0  0  0  0  0
   -3.1808   -0.3957   -4.0795 H   0  0  0  0  0  0  0  0  0  0  0  0
   -2.8539    0.4693   -2.5702 H   0  0  0  0  0  0  0  0  0  0  0  0
   -1.5252   -0.2204   -3.4777 H   0  0  0  0  0  0  0  0  0  0  0  0
   -1.0655   -2.7228   -3.4366 H   0  0  0  0  0  0  0  0  0  0  0  0
   -2.3400   -3.8125   -2.8734 H   0  0  0  0  0  0  0  0  0  0  0  0
   -2.6100   -2.7828   -4.2730 H   0  0  0  0  0  0  0  0  0  0  0  0
    0.7520   -1.0794   -2.3129 C   0  0  0  0  0  0  0  0  0  0  0  0
    1.1185   -1.4393   -3.3584 O   0  0  0  0  0  0  0  0  0  0  0  0
   -0.1165    0.8859   -1.1293 H   0  0  0  0  0  0  0  0  0  0  0  0
    0.2216   -2.8764    3.0722 O   0  0  0  0  0  0  0  0  0  0  0  0
    1.1155   -2.5603    3.8414 C   0  0  0  0  0  0  0  0  0  0  0  0
    1.2433   -1.2904    4.5348 C   0  0  0  0  0  0  0  0  0  0  0  0
    0.2306   -0.3257    4.4578 C   0  0  0  0  0  0  0  0  0  0  0  0
    0.3759    0.8834    5.1087 C   0  0  0  0  0  0  0  0  0  0  0  0
    1.5307    1.1501    5.8324 C   0  0  0  0  0  0  0  0  0  0  0  0
    2.5440    0.2025    5.9084 C   0  0  0  0  0  0  0  0  0  0  0  0
    2.4028   -1.0126    5.2699 C   0  0  0  0  0  0  0  0  0  0  0  0
    0.4361   -2.4247    1.2073 H   0  0  0  0  0  0  0  0  0  0  0  0
   -0.0331   -0.0383    0.8412 H   0  0  0  0  0  0  0  0  0  0  0  0
    1.9431   -3.2708    4.0422 H   0  0  0  0  0  0  0  0  0  0  0  0
   -0.6551   -0.5470    3.8816 H   0  0  0  0  0  0  0  0  0  0  0  0
   -0.4077    1.6244    5.0493 H   0  0  0  0  0  0  0  0  0  0  0  0
    1.6427    2.0987    6.3370 H   0  0  0  0  0  0  0  0  0  0  0  0
    3.4441    0.4164    6.4670 H   0  0  0  0  0  0  0  0  0  0  0  0
    3.1885   -1.7554    5.3251 H   0  0  0  0  0  0  0  0  0  0  0  0
  1  2  1  0  0  0  0
  2  3  1  0  0  0  0
  3  4  1  0  0  0  0
  1  5  1  0  0  0  0
  4  5  1  0  0  0  0
  5  6  1  0  0  0  0
  6  7  1  0  0  0  0
  6  8  1  0  0  0  0
  5  9  1  0  0  0  0
  9 10  1  0  0  0  0
  9 11  1  0  0  0  0
  2 12  1  0  0  0  0
 12 13  1  0  0  0  0
  1 14  1  0  0  0  0
 13 14  1  0  0  0  0
 14 15  1  0  0  0  0
 15 16  1  0  0  0  0
 15 17  1  0  0  0  0
 14 18  1  0  0  0  0
 18 19  1  0  0  0  0
 18 20  1  0  0  0  0
  3 21  1  0  0  0  0
  3 22  1  0  0  0  0
  4 23  1  0  0  0  0
  4 24  1  0  0  0  0
  6 25  1  0  0  0  0
  7 26  1  0  0  0  0
  7 27  1  0  0  0  0
  7 28  1  0  0  0  0
  8 29  1  0  0  0  0
  8 30  1  0  0  0  0
  8 31  1  0  0  0  0
  9 32  1  0  0  0  0
 10 33  1  0  0  0  0
 10 34  1  0  0  0  0
 10 35  1  0  0  0  0
 11 36  1  0  0  0  0
 11 37  1  0  0  0  0
 11 38  1  0  0  0  0
 12 39  1  0  0  0  0
 12 40  1  0  0  0  0
 13 41  1  0  0  0  0
 13 42  1  0  0  0  0
 15 43  1  0  0  0  0
 16 44  1  0  0  0  0
 16 45  1  0  0  0  0
 16 46  1  0  0  0  0
 17 47  1  0  0  0  0
 17 48  1  0  0  0  0
 17 49  1  0  0  0  0
 18 50  1  0  0  0  0
 19 51  1  0  0  0  0
 19 52  1  0  0  0  0
 19 53  1  0  0  0  0
 20 54  1  0  0  0  0
 20 55  1  0  0  0  0
 20 56  1  0  0  0  0
  1 57  2  0  0  0  0
  1 58  1  0  0  0  0
 57 58  2  0  0  0  0
  1 59  1  0  0  0  0
 60 61  2  0  0  0  0
 61 62  1  0  0  0  0
 62 63  4  0  0  0  0
 63 64  4  0  0  0  0
 64 65  4  0  0  0  0
 65 66  4  0  0  0  0
 62 67  4  0  0  0  0
 66 67  4  0  0  0  0
  2 68  1  0  0  0  0
  1 69  1  0  0  0  0
 61 70  1  0  0  0  0
 63 71  1  0  0  0  0
 64 72  1  0  0  0  0
 65 73  1  0  0  0  0
 66 74  1  0  0  0  0
 67 75  1  0  0  0  0
M  END
