 xtb: 6.7.1 (edcfbbe)
          09132601383D

 76 80  0     0  0            999 V2000
    0.4401    0.3533    0.1887 Mn  0  0  0  0  0  0  0  0  0  0  0  0
    0.4752   -1.8110    0.9801 N   0  0  0  0  0  0  0  0  0  0  0  0
    1.7382   -2.5507    0.8577 C   0  0  0  0  0  0  0  0  0  0  0  0
    2.4429   -2.2322   -0.4611 C   0  0  0  0  0  0  0  0  0  0  0  0
    2.3944   -0.3928   -0.7330 P   0  0  0  0  0  0  0  0  0  0  0  0
    2.6974   -0.2708   -2.5823 C   0  0  0  0  0  0  0  0  0  0  0  0
    4.0526   -0.7742   -3.0787 C   0  0  0  0  0  0  0  0  0  0  0  0
    1.5737   -0.9702   -3.3479 C   0  0  0  0  0  0  0  0  0  0  0  0
    4.0537    0.1672   -0.0716 C   0  0  0  0  0  0  0  0  0  0  0  0
    4.2117   -0.1417    1.4146 C   0  0  0  0  0  0  0  0  0  0  0  0
    4.1693    1.6689   -0.3248 C   0  0  0  0  0  0  0  0  0  0  0  0
   -0.7265   -2.6012    0.7202 C   0  0  0  0  0  0  0  0  0  0  0  0
   -1.9532   -1.8009    1.1559 C   0  0  0  0  0  0  0  0  0  0  0  0
   -1.7711   -0.0513    0.5321 P   0  0  0  0  0  0  0  0  0  0  0  0
   -2.7737    0.9246    1.7728 C   0  0  0  0  0  0  0  0  0  0  0  0
   -2.8736    2.3571    1.2504 C   0  0  0  0  0  0  0  0  0  0  0  0
   -2.1102    0.9245    3.1468 C   0  0  0  0  0  0  0  0  0  0  0  0
   -2.9323   -0.0512   -0.9437 C   0  0  0  0  0  0  0  0  0  0  0  0
   -4.4184   -0.2420   -0.6451 C   0  0  0  0  0  0  0  0  0  0  0  0
   -2.4543   -1.1035   -1.9442 C   0  0  0  0  0  0  0  0  0  0  0  0
    2.3822   -2.2600    1.6925 H   0  0  0  0  0  0  0  0  0  0  0  0
    1.5595   -3.6333    0.9331 H   0  0  0  0  0  0  0  0  0  0  0  0
    3.4693   -2.6075   -0.4573 H   0  0  0  0  0  0  0  0  0  0  0  0
    1.8963   -2.6933   -1.2877 H   0  0  0  0  0  0  0  0  0  0  0  0
    2.6109    0.8059   -2.7829 H   0  0  0  0  0  0  0  0  0  0  0  0
    4.0480   -0.7799   -4.1680 H   0  0  0  0  0  0  0  0  0  0  0  0
    4.2433   -1.7907   -2.7393 H   0  0  0  0  0  0  0  0  0  0  0  0
    4.8701   -0.1335   -2.7588 H   0  0  0  0  0  0  0  0  0  0  0  0
    1.5292   -0.5963   -4.3689 H   0  0  0  0  0  0  0  0  0  0  0  0
    1.7344   -2.0458   -3.3907 H   0  0  0  0  0  0  0  0  0  0  0  0
    0.6137   -0.7688   -2.8734 H   0  0  0  0  0  0  0  0  0  0  0  0
    4.8398   -0.3665   -0.6175 H   0  0  0  0  0  0  0  0  0  0  0  0
    5.0903    0.3696    1.8076 H   0  0  0  0  0  0  0  0  0  0  0  0
    4.3452   -1.2086    1.5861 H   0  0  0  0  0  0  0  0  0  0  0  0
    3.3470    0.2002    1.9821 H   0  0  0  0  0  0  0  0  0  0  0  0
    3.3192    2.1896    0.1205 H   0  0  0  0  0  0  0  0  0  0  0  0
    5.0845    2.0641    0.1144 H   0  0  0  0  0  0  0  0  0  0  0  0
    4.1767    1.8928   -1.3898 H   0  0  0  0  0  0  0  0  0  0  0  0
   -0.6962   -3.5579    1.2704 H   0  0  0  0  0  0  0  0  0  0  0  0
   -0.7728   -2.8277   -0.3497 H   0  0  0  0  0  0  0  0  0  0  0  0
   -2.0007   -1.7687    2.2483 H   0  0  0  0  0  0  0  0  0  0  0  0
   -2.8722   -2.2589    0.7867 H   0  0  0  0  0  0  0  0  0  0  0  0
   -3.7682    0.4716    1.8611 H   0  0  0  0  0  0  0  0  0  0  0  0
   -3.4627    2.4167    0.3386 H   0  0  0  0  0  0  0  0  0  0  0  0
   -3.3305    3.0055    1.9967 H   0  0  0  0  0  0  0  0  0  0  0  0
   -1.8721    2.7347    1.0299 H   0  0  0  0  0  0  0  0  0  0  0  0
   -2.6650    1.5678    3.8287 H   0  0  0  0  0  0  0  0  0  0  0  0
   -2.0760   -0.0703    3.5877 H   0  0  0  0  0  0  0  0  0  0  0  0
   -1.0945    1.3138    3.0754 H   0  0  0  0  0  0  0  0  0  0  0  0
   -2.7757    0.9366   -1.3964 H   0  0  0  0  0  0  0  0  0  0  0  0
   -4.5987   -1.1369   -0.0519 H   0  0  0  0  0  0  0  0  0  0  0  0
   -4.8441    0.6111   -0.1240 H   0  0  0  0  0  0  0  0  0  0  0  0
   -4.9533   -0.3542   -1.5873 H   0  0  0  0  0  0  0  0  0  0  0  0
   -1.3668   -1.0662   -2.0244 H   0  0  0  0  0  0  0  0  0  0  0  0
   -2.7576   -2.1030   -1.6378 H   0  0  0  0  0  0  0  0  0  0  0  0
   -2.8745   -0.9082   -2.9289 H   0  0  0  0  0  0  0  0  0  0  0  0
    0.0469    1.2082   -1.2941 C   0  0  0  0  0  0  0  0  0  0  0  0
   -0.2086    1.8396   -2.2466 O   0  0  0  0  0  0  0  0  0  0  0  0
    0.7961    1.8201    1.1042 C   0  0  0  0  0  0  0  0  0  0  0  0
    0.9626    2.9104    1.5606 O   0  0  0  0  0  0  0  0  0  0  0  0
    1.4023   -0.5677    3.4973 O   0  0  0  0  0  0  0  0  0  0  0  0
    1.0080   -0.2513    4.6147 C   0  0  0  0  0  0  0  0  0  0  0  0
   -0.0626   -0.9010    5.3470 C   0  0  0  0  0  0  0  0  0  0  0  0
   -0.6206   -2.1038    4.8920 C   0  0  0  0  0  0  0  0  0  0  0  0
   -1.6507   -2.7040    5.5849 C   0  0  0  0  0  0  0  0  0  0  0  0
   -2.1425   -2.1177    6.7434 C   0  0  0  0  0  0  0  0  0  0  0  0
   -1.5903   -0.9327    7.2115 C   0  0  0  0  0  0  0  0  0  0  0  0
   -0.5572   -0.3288    6.5247 C   0  0  0  0  0  0  0  0  0  0  0  0
    0.4178   -1.4962    1.9545 H   0  0  0  0  0  0  0  0  0  0  0  0
    1.4681    0.6088    5.1332 H   0  0  0  0  0  0  0  0  0  0  0  0
    1.0457    0.8056    1.7590 H   0  0  0  0  0  0  0  0  0  0  0  0
   -0.2153   -2.5637    4.0015 H   0  0  0  0  0  0  0  0  0  0  0  0
   -2.0745   -3.6319    5.2279 H   0  0  0  0  0  0  0  0  0  0  0  0
   -2.9513   -2.5866    7.2835 H   0  0  0  0  0  0  0  0  0  0  0  0
   -1.9711   -0.4822    8.1164 H   0  0  0  0  0  0  0  0  0  0  0  0
   -0.1279    0.5965    6.8823 H   0  0  0  0  0  0  0  0  0  0  0  0
  1  2  1  0  0  0  0
  2  3  1  0  0  0  0
  3  4  1  0  0  0  0
  1  5  1  0  0  0  0
  4  5  1  0  0  0  0
  5  6  1  0  0  0  0
  6  7  1  0  0  0  0
  6  8  1  0  0  0  0
  5  9  1  0  0  0  0
  9 10  1  0  0  0  0
  9 11  1  0  0  0  0
  2 12  1  0  0  0  0
 12 13  1  0  0  0  0
  1 14  1  0  0  0  0
 13 14  1  0  0  0  0
 14 15  1  0  0  0  0
 15 16  1  0  0  0  0
 15 17  1  0  0  0  0
 14 18  1  0  0  0  0
 18 19  1  0  0  0  0
 18 20  1  0  0  0  0
  3 21  1  0  0  0  0
  3 22  1  0  0  0  0
  4 23  1  0  0  0  0
  4 24  1  0  0  0  0
  6 25  1  0  0  0  0
  7 26  1  0  0  0  0
  7 27  1  0  0  0  0
  7 28  1  0  0  0  0
  8 29  1  0  0  0  0
  8 30  1  0  0  0  0
  8 31  1  0  0  0  0
  9 32  1  0  0  0  0
 10 33  1  0  0  0  0
 10 34  1  0  0  0  0
 10 35  1  0  0  0  0
 11 36  1  0  0  0  0
 11 37  1  0  0  0  0
 11 38  1  0  0  0  0
 12 39  1  0  0  0  0
 12 40  1  0  0  0  0
 13 41  1  0  0  0  0
 13 42  1  0  0  0  0
 15 43  1  0  0  0  0
 16 44  1  0  0  0  0
 16 45  1  0  0  0  0
 16 46  1  0  0  0  0
 17 47  1  0  0  0  0
 17 48  1  0  0  0  0
 17 49  1  0  0  0  0
 18 50  1  0  0  0  0
 19 51  1  0  0  0  0
 19 52  1  0  0  0  0
 19 53  1  0  0  0  0
 20 54  1  0  0  0  0
 20 55  1  0  0  0  0
 20 56  1  0  0  0  0
  1 57  2  0  0  0  0
  1 58  1  0  0  0  0
 57 58  2  0  0  0  0
  1 59  2  0  0  0  0
  1 60  1  0  0  0  0
 59 60  2  0  0  0  0
 61 62  2  0  0  0  0
 62 63  1  0  0  0  0
 63 64  4  0  0  0  0
 64 65  4  0  0  0  0
 65 66  4  0  0  0  0
 66 67  4  0  0  0  0
 63 68  4  0  0  0  0
 67 68  4  0  0  0  0
  2 69  1  0  0  0  0
 62 70  1  0  0  0  0
  1 71  1  0  0  0  0
 59 71  1  0  0  0  0
 64 72  1  0  0  0  0
 65 73  1  0  0  0  0
 66 74  1  0  0  0  0
 67 75  1  0  0  0  0
 68 76  1  0  0  0  0
M  END
