 xtb: 6.7.1 (edcfbbe)
          09202600143D

 20 21  0     0  0            999 V2000
   -3.2562    0.2140    0.2103 C   0  0  0  0  0  0  0  0  0  0  0  0
   -1.8477   -0.1113    0.1499 N   0  0  0  0  0  0  0  0  0  0  0  0
   -1.4535   -1.4060    0.0329 C   0  0  0  0  0  0  0  0  0  0  0  0
   -0.2500   -1.8273   -0.0312 N   0  0  0  0  0  0  0  0  0  0  0  0
    0.7546   -0.8929    0.0219 C   0  0  0  0  0  0  0  0  0  0  0  0
    2.0867   -1.3137   -0.0458 C   0  0  0  0  0  0  0  0  0  0  0  0
    3.1028   -0.3874    0.0063 C   0  0  0  0  0  0  0  0  0  0  0  0
    2.8204    0.9732    0.1266 C   0  0  0  0  0  0  0  0  0  0  0  0
    1.5156    1.4048    0.1946 C   0  0  0  0  0  0  0  0  0  0  0  0
    0.4706    0.4795    0.1431 C   0  0  0  0  0  0  0  0  0  0  0  0
   -0.9152    0.9302    0.2143 C   0  0  0  0  0  0  0  0  0  0  0  0
   -1.2771    2.0848    0.3192 O   0  0  0  0  0  0  0  0  0  0  0  0
   -3.3378    1.2965    0.3038 H   0  0  0  0  0  0  0  0  0  0  0  0
   -3.7614   -0.1126   -0.6993 H   0  0  0  0  0  0  0  0  0  0  0  0
   -3.7201   -0.2628    1.0745 H   0  0  0  0  0  0  0  0  0  0  0  0
   -2.2510   -2.1380   -0.0085 H   0  0  0  0  0  0  0  0  0  0  0  0
    2.2861   -2.3694   -0.1387 H   0  0  0  0  0  0  0  0  0  0  0  0
    4.1308   -0.7148   -0.0463 H   0  0  0  0  0  0  0  0  0  0  0  0
    3.6294    1.6870    0.1663 H   0  0  0  0  0  0  0  0  0  0  0  0
    1.2675    2.4513    0.2880 H   0  0  0  0  0  0  0  0  0  0  0  0
  1  2  1  0  0  0  0
  2  3  1  0  0  0  0
  3  4  2  0  0  0  0
  4  5  1  0  0  0  0
  5  6  4  0  0  0  0
  6  7  2  0  0  0  0
  7  8  4  0  0  0  0
  8  9  4  0  0  0  0
  5 10  4  0  0  0  0
  9 10  4  0  0  0  0
  2 11  1  0  0  0  0
 10 11  1  0  0  0  0
 11 12  2  0  0  0  0
  1 13  1  0  0  0  0
  1 14  1  0  0  0  0
  1 15  1  0  0  0  0
  3 16  1  0  0  0  0
  6 17  1  0  0  0  0
  7 18  1  0  0  0  0
  8 19  1  0  0  0  0
  9 20  1  0  0  0  0
M  END
