 xtb: 6.7.1 (edcfbbe)
          09132601173D

 79 85  0     0  0            999 V2000
   -0.1052   -0.5364   -0.4674 Ru  0  0  0  0  0  0  0  0  0  0  0  0
    0.5524   -2.6403   -0.2937 N   0  0  0  0  0  0  0  0  0  0  0  0
    0.7729   -2.0923    0.8765 C   0  0  0  0  0  0  0  0  0  0  0  0
    2.1490   -1.4840    1.1047 C   0  0  0  0  0  0  0  0  0  0  0  0
    2.1379   -0.1262   -0.1520 P   0  0  0  0  0  0  0  0  0  0  0  0
    2.9044    1.2806    0.7035 C   0  0  0  0  0  0  0  0  0  0  0  0
    2.2427    2.5019    0.6970 C   0  0  0  0  0  0  0  0  0  0  0  0
    2.8114    3.5971    1.3249 C   0  0  0  0  0  0  0  0  0  0  0  0
    4.0345    3.4694    1.9637 C   0  0  0  0  0  0  0  0  0  0  0  0
    4.6932    2.2483    1.9747 C   0  0  0  0  0  0  0  0  0  0  0  0
    4.1340    1.1531    1.3431 C   0  0  0  0  0  0  0  0  0  0  0  0
    3.4149   -0.5942   -1.3631 C   0  0  0  0  0  0  0  0  0  0  0  0
    4.2897    0.3506   -1.8911 C   0  0  0  0  0  0  0  0  0  0  0  0
    5.2037   -0.0198   -2.8617 C   0  0  0  0  0  0  0  0  0  0  0  0
    5.2429   -1.3268   -3.3194 C   0  0  0  0  0  0  0  0  0  0  0  0
    4.3567   -2.2651   -2.8131 C   0  0  0  0  0  0  0  0  0  0  0  0
    3.4407   -1.9014   -1.8438 C   0  0  0  0  0  0  0  0  0  0  0  0
   -0.5174   -3.6050   -0.4413 C   0  0  0  0  0  0  0  0  0  0  0  0
   -1.8852   -3.2011    0.1363 C   0  0  0  0  0  0  0  0  0  0  0  0
   -2.2035   -1.4561   -0.4012 P   0  0  0  0  0  0  0  0  0  0  0  0
   -3.5430   -0.8895    0.7030 C   0  0  0  0  0  0  0  0  0  0  0  0
   -4.5092   -1.7311    1.2422 C   0  0  0  0  0  0  0  0  0  0  0  0
   -5.5010   -1.2081    2.0527 C   0  0  0  0  0  0  0  0  0  0  0  0
   -5.5405    0.1503    2.3230 C   0  0  0  0  0  0  0  0  0  0  0  0
   -4.5831    0.9930    1.7810 C   0  0  0  0  0  0  0  0  0  0  0  0
   -3.5876    0.4749    0.9726 C   0  0  0  0  0  0  0  0  0  0  0  0
   -3.1800   -1.6057   -1.9441 C   0  0  0  0  0  0  0  0  0  0  0  0
   -2.9893   -0.6174   -2.9056 C   0  0  0  0  0  0  0  0  0  0  0  0
   -3.7184   -0.6325   -4.0809 C   0  0  0  0  0  0  0  0  0  0  0  0
   -4.6499   -1.6335   -4.3040 C   0  0  0  0  0  0  0  0  0  0  0  0
   -4.8599   -2.6078   -3.3416 C   0  0  0  0  0  0  0  0  0  0  0  0
   -4.1363   -2.5922   -2.1625 C   0  0  0  0  0  0  0  0  0  0  0  0
    0.2567   -2.4488    1.7794 H   0  0  0  0  0  0  0  0  0  0  0  0
   -0.2817    0.0602    0.9734 H   0  0  0  0  0  0  0  0  0  0  0  0
    2.9489   -2.2215    0.9725 H   0  0  0  0  0  0  0  0  0  0  0  0
    2.2118   -1.0407    2.1034 H   0  0  0  0  0  0  0  0  0  0  0  0
    1.2807    2.5665    0.2019 H   0  0  0  0  0  0  0  0  0  0  0  0
    2.3011    4.5498    1.3189 H   0  0  0  0  0  0  0  0  0  0  0  0
    4.4779    4.3229    2.4566 H   0  0  0  0  0  0  0  0  0  0  0  0
    5.6471    2.1545    2.4745 H   0  0  0  0  0  0  0  0  0  0  0  0
    4.6455    0.1992    1.3368 H   0  0  0  0  0  0  0  0  0  0  0  0
    4.2523    1.3736   -1.5411 H   0  0  0  0  0  0  0  0  0  0  0  0
    5.8849    0.7155   -3.2656 H   0  0  0  0  0  0  0  0  0  0  0  0
    5.9575   -1.6126   -4.0778 H   0  0  0  0  0  0  0  0  0  0  0  0
    4.3770   -3.2814   -3.1806 H   0  0  0  0  0  0  0  0  0  0  0  0
    2.7288   -2.6234   -1.4627 H   0  0  0  0  0  0  0  0  0  0  0  0
   -0.6289   -3.7882   -1.5187 H   0  0  0  0  0  0  0  0  0  0  0  0
   -0.1846   -4.5457    0.0226 H   0  0  0  0  0  0  0  0  0  0  0  0
   -2.6441   -3.9021   -0.2160 H   0  0  0  0  0  0  0  0  0  0  0  0
   -1.8790   -3.2105    1.2314 H   0  0  0  0  0  0  0  0  0  0  0  0
   -4.4833   -2.7932    1.0474 H   0  0  0  0  0  0  0  0  0  0  0  0
   -6.2461   -1.8646    2.4791 H   0  0  0  0  0  0  0  0  0  0  0  0
   -6.3156    0.5507    2.9605 H   0  0  0  0  0  0  0  0  0  0  0  0
   -4.6108    2.0523    1.9936 H   0  0  0  0  0  0  0  0  0  0  0  0
   -2.8162    1.1100    0.5517 H   0  0  0  0  0  0  0  0  0  0  0  0
   -2.2569    0.1604   -2.7160 H   0  0  0  0  0  0  0  0  0  0  0  0
   -3.5585    0.1354   -4.8240 H   0  0  0  0  0  0  0  0  0  0  0  0
   -5.2157   -1.6526   -5.2241 H   0  0  0  0  0  0  0  0  0  0  0  0
   -5.5940   -3.3832   -3.5090 H   0  0  0  0  0  0  0  0  0  0  0  0
   -4.3275   -3.3518   -1.4181 H   0  0  0  0  0  0  0  0  0  0  0  0
    0.1455   -0.9894   -2.2426 C   0  0  0  0  0  0  0  0  0  0  0  0
    0.3703   -1.3193   -3.3222 O   0  0  0  0  0  0  0  0  0  0  0  0
   -0.5545    0.8839   -0.8994 H   0  0  0  0  0  0  0  0  0  0  0  0
   -1.7789   -1.5593    3.0859 O   0  0  0  0  0  0  0  0  0  0  0  0
   -1.6560   -0.6479    4.1603 C   0  0  0  0  0  0  0  0  0  0  0  0
   -0.2455   -0.1250    4.2782 C   0  0  0  0  0  0  0  0  0  0  0  0
    0.7692   -0.9707    4.7105 C   0  0  0  0  0  0  0  0  0  0  0  0
    2.0776   -0.5237    4.7725 C   0  0  0  0  0  0  0  0  0  0  0  0
    2.3832    0.7769    4.4053 C   0  0  0  0  0  0  0  0  0  0  0  0
    1.3780    1.6230    3.9696 C   0  0  0  0  0  0  0  0  0  0  0  0
    0.0713    1.1720    3.8981 C   0  0  0  0  0  0  0  0  0  0  0  0
   -1.5083   -1.0792    2.2847 H   0  0  0  0  0  0  0  0  0  0  0  0
   -1.9360   -1.2106    5.0566 H   0  0  0  0  0  0  0  0  0  0  0  0
   -2.3641    0.1828    4.0291 H   0  0  0  0  0  0  0  0  0  0  0  0
    0.5262   -1.9852    4.9955 H   0  0  0  0  0  0  0  0  0  0  0  0
    2.8589   -1.1903    5.1104 H   0  0  0  0  0  0  0  0  0  0  0  0
    3.4029    1.1302    4.4554 H   0  0  0  0  0  0  0  0  0  0  0  0
    1.6143    2.6357    3.6797 H   0  0  0  0  0  0  0  0  0  0  0  0
   -0.7090    1.8316    3.5460 H   0  0  0  0  0  0  0  0  0  0  0  0
  1  2  1  0  0  0  0
  1  3  1  0  0  0  0
  2  3  4  0  0  0  0
  3  4  1  0  0  0  0
  1  5  1  0  0  0  0
  4  5  1  0  0  0  0
  5  6  1  0  0  0  0
  6  7  4  0  0  0  0
  7  8  4  0  0  0  0
  8  9  4  0  0  0  0
  9 10  4  0  0  0  0
  6 11  4  0  0  0  0
 10 11  4  0  0  0  0
  5 12  1  0  0  0  0
 12 13  4  0  0  0  0
 13 14  4  0  0  0  0
 14 15  4  0  0  0  0
 15 16  4  0  0  0  0
 12 17  4  0  0  0  0
 16 17  4  0  0  0  0
  2 18  1  0  0  0  0
 18 19  1  0  0  0  0
  1 20  1  0  0  0  0
 19 20  1  0  0  0  0
 20 21  1  0  0  0  0
 21 22  4  0  0  0  0
 22 23  4  0  0  0  0
 23 24  4  0  0  0  0
 24 25  4  0  0  0  0
 21 26  4  0  0  0  0
 25 26  4  0  0  0  0
 20 27  1  0  0  0  0
 27 28  4  0  0  0  0
 28 29  4  0  0  0  0
 29 30  4  0  0  0  0
 30 31  4  0  0  0  0
 27 32  4  0  0  0  0
 31 32  4  0  0  0  0
  3 33  1  0  0  0  0
  1 34  1  0  0  0  0
  4 35  1  0  0  0  0
  4 36  1  0  0  0  0
  7 37  1  0  0  0  0
  8 38  1  0  0  0  0
  9 39  1  0  0  0  0
 10 40  1  0  0  0  0
 11 41  1  0  0  0  0
 13 42  1  0  0  0  0
 14 43  1  0  0  0  0
 15 44  1  0  0  0  0
 16 45  1  0  0  0  0
 17 46  1  0  0  0  0
 18 47  1  0  0  0  0
 18 48  1  0  0  0  0
 19 49  1  0  0  0  0
 19 50  1  0  0  0  0
 22 51  1  0  0  0  0
 23 52  1  0  0  0  0
 24 53  1  0  0  0  0
 25 54  1  0  0  0  0
 26 55  1  0  0  0  0
 28 56  1  0  0  0  0
 29 57  1  0  0  0  0
 30 58  1  0  0  0  0
 31 59  1  0  0  0  0
 32 60  1  0  0  0  0
  1 61  1  0  0  0  0
 61 62  2  0  0  0  0
  1 63  1  0  0  0  0
 64 65  1  0  0  0  0
 65 66  1  0  0  0  0
 66 67  4  0  0  0  0
 67 68  4  0  0  0  0
 68 69  4  0  0  0  0
 69 70  4  0  0  0  0
 66 71  4  0  0  0  0
 70 71  4  0  0  0  0
 64 72  1  0  0  0  0
 65 73  1  0  0  0  0
 65 74  1  0  0  0  0
 67 75  1  0  0  0  0
 68 76  1  0  0  0  0
 69 77  1  0  0  0  0
 70 78  1  0  0  0  0
 71 79  1  0  0  0  0
M  END
