 xtb: 6.7.1 (edcfbbe)
          09132601203D

 80 87  0     0  0            999 V2000
    0.0468   -0.2031   -0.4274 Mn  0  0  0  0  0  0  0  0  0  0  0  0
    0.3647   -2.1354    0.0092 N   0  0  0  0  0  0  0  0  0  0  0  0
    1.6886   -2.7410   -0.0345 C   0  0  0  0  0  0  0  0  0  0  0  0
    2.5999   -2.0055   -1.0137 C   0  0  0  0  0  0  0  0  0  0  0  0
    2.2834   -0.2133   -0.7312 P   0  0  0  0  0  0  0  0  0  0  0  0
    3.4404    0.1105    0.6470 C   0  0  0  0  0  0  0  0  0  0  0  0
    3.0427   -0.2446    1.9337 C   0  0  0  0  0  0  0  0  0  0  0  0
    3.9078   -0.0902    3.0013 C   0  0  0  0  0  0  0  0  0  0  0  0
    5.1769    0.4268    2.7954 C   0  0  0  0  0  0  0  0  0  0  0  0
    5.5762    0.7868    1.5189 C   0  0  0  0  0  0  0  0  0  0  0  0
    4.7165    0.6285    0.4457 C   0  0  0  0  0  0  0  0  0  0  0  0
    3.1229    0.6327   -2.1064 C   0  0  0  0  0  0  0  0  0  0  0  0
    2.8910    2.0032   -2.2103 C   0  0  0  0  0  0  0  0  0  0  0  0
    3.5109    2.7434   -3.1984 C   0  0  0  0  0  0  0  0  0  0  0  0
    4.3684    2.1193   -4.0915 C   0  0  0  0  0  0  0  0  0  0  0  0
    4.6028    0.7582   -3.9916 C   0  0  0  0  0  0  0  0  0  0  0  0
    3.9843    0.0116   -3.0036 C   0  0  0  0  0  0  0  0  0  0  0  0
   -0.4736   -2.9121    0.9112 C   0  0  0  0  0  0  0  0  0  0  0  0
   -1.7876   -2.1915    1.2300 C   0  0  0  0  0  0  0  0  0  0  0  0
   -2.0602   -0.8998   -0.0521 P   0  0  0  0  0  0  0  0  0  0  0  0
   -3.3426    0.1120    0.7633 C   0  0  0  0  0  0  0  0  0  0  0  0
   -4.5535   -0.4742    1.1266 C   0  0  0  0  0  0  0  0  0  0  0  0
   -5.5236    0.2767    1.7629 C   0  0  0  0  0  0  0  0  0  0  0  0
   -5.2968    1.6172    2.0362 C   0  0  0  0  0  0  0  0  0  0  0  0
   -4.0984    2.2060    1.6694 C   0  0  0  0  0  0  0  0  0  0  0  0
   -3.1224    1.4568    1.0337 C   0  0  0  0  0  0  0  0  0  0  0  0
   -3.1053   -1.6791   -1.3270 C   0  0  0  0  0  0  0  0  0  0  0  0
   -3.1951   -3.0507   -1.5277 C   0  0  0  0  0  0  0  0  0  0  0  0
   -3.9983   -3.5475   -2.5402 C   0  0  0  0  0  0  0  0  0  0  0  0
   -4.7032   -2.6841   -3.3615 C   0  0  0  0  0  0  0  0  0  0  0  0
   -4.6035   -1.3130   -3.1760 C   0  0  0  0  0  0  0  0  0  0  0  0
   -3.8040   -0.8122   -2.1672 C   0  0  0  0  0  0  0  0  0  0  0  0
    1.6100   -3.8032   -0.3324 H   0  0  0  0  0  0  0  0  0  0  0  0
    2.1572   -2.7340    0.9695 H   0  0  0  0  0  0  0  0  0  0  0  0
    2.3223   -2.2396   -2.0465 H   0  0  0  0  0  0  0  0  0  0  0  0
    3.6519   -2.2563   -0.8500 H   0  0  0  0  0  0  0  0  0  0  0  0
    2.0450   -0.6321    2.0938 H   0  0  0  0  0  0  0  0  0  0  0  0
    3.5897   -0.3681    3.9957 H   0  0  0  0  0  0  0  0  0  0  0  0
    5.8519    0.5526    3.6292 H   0  0  0  0  0  0  0  0  0  0  0  0
    6.5637    1.1939    1.3553 H   0  0  0  0  0  0  0  0  0  0  0  0
    5.0389    0.9134   -0.5457 H   0  0  0  0  0  0  0  0  0  0  0  0
    2.2212    2.4751   -1.5005 H   0  0  0  0  0  0  0  0  0  0  0  0
    3.3269    3.8053   -3.2733 H   0  0  0  0  0  0  0  0  0  0  0  0
    4.8547    2.6948   -4.8656 H   0  0  0  0  0  0  0  0  0  0  0  0
    5.2732    0.2725   -4.6857 H   0  0  0  0  0  0  0  0  0  0  0  0
    4.1798   -1.0485   -2.9368 H   0  0  0  0  0  0  0  0  0  0  0  0
   -0.6851   -3.9012    0.4638 H   0  0  0  0  0  0  0  0  0  0  0  0
    0.0658   -3.1135    1.8566 H   0  0  0  0  0  0  0  0  0  0  0  0
   -2.6362   -2.8746    1.3162 H   0  0  0  0  0  0  0  0  0  0  0  0
   -1.6913   -1.6305    2.1678 H   0  0  0  0  0  0  0  0  0  0  0  0
   -4.7355   -1.5168    0.9013 H   0  0  0  0  0  0  0  0  0  0  0  0
   -6.4602   -0.1823    2.0450 H   0  0  0  0  0  0  0  0  0  0  0  0
   -6.0571    2.2024    2.5326 H   0  0  0  0  0  0  0  0  0  0  0  0
   -3.9212    3.2512    1.8768 H   0  0  0  0  0  0  0  0  0  0  0  0
   -2.1842    1.9119    0.7425 H   0  0  0  0  0  0  0  0  0  0  0  0
   -2.6375   -3.7347   -0.9050 H   0  0  0  0  0  0  0  0  0  0  0  0
   -4.0686   -4.6152   -2.6915 H   0  0  0  0  0  0  0  0  0  0  0  0
   -5.3263   -3.0776   -4.1513 H   0  0  0  0  0  0  0  0  0  0  0  0
   -5.1456   -0.6370   -3.8217 H   0  0  0  0  0  0  0  0  0  0  0  0
   -3.7101    0.2575   -2.0156 H   0  0  0  0  0  0  0  0  0  0  0  0
   -0.3154    1.3956   -1.0805 C   0  0  0  0  0  0  0  0  0  0  0  0
   -0.5623    2.4705   -1.4541 O   0  0  0  0  0  0  0  0  0  0  0  0
    0.0716    0.5467    1.1656 C   0  0  0  0  0  0  0  0  0  0  0  0
    0.0330    1.0992    2.1884 O   0  0  0  0  0  0  0  0  0  0  0  0
   -0.3398   -2.6189   -2.4734 O   0  0  0  0  0  0  0  0  0  0  0  0
   -0.2846   -1.2814   -2.8305 C   0  0  0  0  0  0  0  0  0  0  0  0
    0.6643   -0.9679   -3.9593 C   0  0  0  0  0  0  0  0  0  0  0  0
    0.7758    0.3450   -4.4071 C   0  0  0  0  0  0  0  0  0  0  0  0
    1.6154    0.6547   -5.4589 C   0  0  0  0  0  0  0  0  0  0  0  0
    2.3597   -0.3415   -6.0718 C   0  0  0  0  0  0  0  0  0  0  0  0
    2.2572   -1.6477   -5.6280 C   0  0  0  0  0  0  0  0  0  0  0  0
    1.4110   -1.9608   -4.5777 C   0  0  0  0  0  0  0  0  0  0  0  0
   -0.1204   -2.6271   -1.4751 H   0  0  0  0  0  0  0  0  0  0  0  0
    0.0403   -0.6457   -1.9474 H   0  0  0  0  0  0  0  0  0  0  0  0
   -1.2884   -0.9249   -3.1324 H   0  0  0  0  0  0  0  0  0  0  0  0
    0.1977    1.1236   -3.9261 H   0  0  0  0  0  0  0  0  0  0  0  0
    1.6914    1.6764   -5.8015 H   0  0  0  0  0  0  0  0  0  0  0  0
    3.0146   -0.0977   -6.8955 H   0  0  0  0  0  0  0  0  0  0  0  0
    2.8323   -2.4298   -6.1034 H   0  0  0  0  0  0  0  0  0  0  0  0
    1.3068   -2.9829   -4.2403 H   0  0  0  0  0  0  0  0  0  0  0  0
  1  2  1  0  0  0  0
  2  3  1  0  0  0  0
  3  4  1  0  0  0  0
  1  5  1  0  0  0  0
  4  5  1  0  0  0  0
  5  6  1  0  0  0  0
  6  7  4  0  0  0  0
  7  8  4  0  0  0  0
  8  9  4  0  0  0  0
  9 10  4  0  0  0  0
  6 11  4  0  0  0  0
 10 11  4  0  0  0  0
  5 12  1  0  0  0  0
 12 13  4  0  0  0  0
 13 14  4  0  0  0  0
 14 15  4  0  0  0  0
 15 16  4  0  0  0  0
 12 17  4  0  0  0  0
 16 17  4  0  0  0  0
  2 18  1  0  0  0  0
 18 19  1  0  0  0  0
  1 20  1  0  0  0  0
 19 20  1  0  0  0  0
 20 21  1  0  0  0  0
 21 22  4  0  0  0  0
 22 23  4  0  0  0  0
 23 24  4  0  0  0  0
 24 25  4  0  0  0  0
 21 26  4  0  0  0  0
 25 26  4  0  0  0  0
 20 27  1  0  0  0  0
 27 28  4  0  0  0  0
 28 29  4  0  0  0  0
 29 30  4  0  0  0  0
 30 31  4  0  0  0  0
 27 32  4  0  0  0  0
 31 32  4  0  0  0  0
  3 33  1  0  0  0  0
  3 34  1  0  0  0  0
  4 35  1  0  0  0  0
  4 36  1  0  0  0  0
  7 37  1  0  0  0  0
  8 38  1  0  0  0  0
  9 39  1  0  0  0  0
 10 40  1  0  0  0  0
 11 41  1  0  0  0  0
 13 42  1  0  0  0  0
 14 43  1  0  0  0  0
 15 44  1  0  0  0  0
 16 45  1  0  0  0  0
 17 46  1  0  0  0  0
 18 47  1  0  0  0  0
 18 48  1  0  0  0  0
 19 49  1  0  0  0  0
 19 50  1  0  0  0  0
 22 51  1  0  0  0  0
 23 52  1  0  0  0  0
 24 53  1  0  0  0  0
 25 54  1  0  0  0  0
 26 55  1  0  0  0  0
 28 56  1  0  0  0  0
 29 57  1  0  0  0  0
 30 58  1  0  0  0  0
 31 59  1  0  0  0  0
 32 60  1  0  0  0  0
  1 61  2  0  0  0  0
  1 62  1  0  0  0  0
 61 62  2  0  0  0  0
  1 63  2  0  0  0  0
  1 64  1  0  0  0  0
 63 64  2  0  0  0  0
 65 66  1  0  0  0  0
 66 67  1  0  0  0  0
 67 68  4  0  0  0  0
 68 69  4  0  0  0  0
 69 70  4  0  0  0  0
 70 71  4  0  0  0  0
 67 72  4  0  0  0  0
 71 72  4  0  0  0  0
 65 73  1  0  0  0  0
 66 74  1  0  0  0  0
 66 75  1  0  0  0  0
 68 76  1  0  0  0  0
 69 77  1  0  0  0  0
 70 78  1  0  0  0  0
 71 79  1  0  0  0  0
 72 80  1  0  0  0  0
M  END
