 xtb: 6.7.1 (edcfbbe)
          09132602043D

 79 85  0     0  0            999 V2000
    0.1567    0.0291   -0.2600 Ru  0  0  0  0  0  0  0  0  0  0  0  0
    0.0184   -1.9161    0.8409 N   0  0  0  0  0  0  0  0  0  0  0  0
    1.2536   -2.7206    0.8474 C   0  0  0  0  0  0  0  0  0  0  0  0
    2.4959   -1.8321    0.8657 C   0  0  0  0  0  0  0  0  0  0  0  0
    2.2891   -0.6570   -0.5600 P   0  0  0  0  0  0  0  0  0  0  0  0
    2.9885   -1.6734   -1.9207 C   0  0  0  0  0  0  0  0  0  0  0  0
    4.3282   -2.0533   -1.9182 C   0  0  0  0  0  0  0  0  0  0  0  0
    4.8291   -2.8258   -2.9490 C   0  0  0  0  0  0  0  0  0  0  0  0
    4.0008   -3.2215   -3.9891 C   0  0  0  0  0  0  0  0  0  0  0  0
    2.6699   -2.8389   -4.0001 C   0  0  0  0  0  0  0  0  0  0  0  0
    2.1662   -2.0643   -2.9689 C   0  0  0  0  0  0  0  0  0  0  0  0
    3.6497    0.5390   -0.3841 C   0  0  0  0  0  0  0  0  0  0  0  0
    4.5962    0.5530    0.6322 C   0  0  0  0  0  0  0  0  0  0  0  0
    5.5707    1.5378    0.6535 C   0  0  0  0  0  0  0  0  0  0  0  0
    5.6082    2.5082   -0.3331 C   0  0  0  0  0  0  0  0  0  0  0  0
    4.6649    2.4991   -1.3500 C   0  0  0  0  0  0  0  0  0  0  0  0
    3.6911    1.5201   -1.3735 C   0  0  0  0  0  0  0  0  0  0  0  0
   -0.5690   -1.6882    2.1658 C   0  0  0  0  0  0  0  0  0  0  0  0
   -1.9483   -1.0522    1.9969 C   0  0  0  0  0  0  0  0  0  0  0  0
   -1.8006    0.3915    0.8165 P   0  0  0  0  0  0  0  0  0  0  0  0
   -2.0139    1.8543    1.9003 C   0  0  0  0  0  0  0  0  0  0  0  0
   -1.1473    2.9295    1.7509 C   0  0  0  0  0  0  0  0  0  0  0  0
   -1.3084    4.0688    2.5202 C   0  0  0  0  0  0  0  0  0  0  0  0
   -2.3379    4.1412    3.4436 C   0  0  0  0  0  0  0  0  0  0  0  0
   -3.2147    3.0767    3.5866 C   0  0  0  0  0  0  0  0  0  0  0  0
   -3.0616    1.9411    2.8133 C   0  0  0  0  0  0  0  0  0  0  0  0
   -3.4665    0.4904    0.0555 C   0  0  0  0  0  0  0  0  0  0  0  0
   -3.5205    1.3125   -1.0672 C   0  0  0  0  0  0  0  0  0  0  0  0
   -4.7177    1.5382   -1.7190 C   0  0  0  0  0  0  0  0  0  0  0  0
   -5.8762    0.9342   -1.2552 C   0  0  0  0  0  0  0  0  0  0  0  0
   -5.8297    0.1127   -0.1418 C   0  0  0  0  0  0  0  0  0  0  0  0
   -4.6326   -0.1072    0.5183 C   0  0  0  0  0  0  0  0  0  0  0  0
    1.2780   -3.3156   -0.0749 H   0  0  0  0  0  0  0  0  0  0  0  0
    1.2544   -3.4091    1.7052 H   0  0  0  0  0  0  0  0  0  0  0  0
    3.4034   -2.4365    0.7787 H   0  0  0  0  0  0  0  0  0  0  0  0
    2.5278   -1.2398    1.7851 H   0  0  0  0  0  0  0  0  0  0  0  0
    4.9778   -1.7326   -1.1141 H   0  0  0  0  0  0  0  0  0  0  0  0
    5.8697   -3.1181   -2.9467 H   0  0  0  0  0  0  0  0  0  0  0  0
    4.3974   -3.8233   -4.7943 H   0  0  0  0  0  0  0  0  0  0  0  0
    2.0258   -3.1397   -4.8144 H   0  0  0  0  0  0  0  0  0  0  0  0
    1.1316   -1.7440   -2.9664 H   0  0  0  0  0  0  0  0  0  0  0  0
    4.5813   -0.1957    1.4112 H   0  0  0  0  0  0  0  0  0  0  0  0
    6.3052    1.5468    1.4467 H   0  0  0  0  0  0  0  0  0  0  0  0
    6.3698    3.2743   -0.3093 H   0  0  0  0  0  0  0  0  0  0  0  0
    4.6887    3.2581   -2.1190 H   0  0  0  0  0  0  0  0  0  0  0  0
    2.9376    1.5039   -2.1544 H   0  0  0  0  0  0  0  0  0  0  0  0
    0.0861   -1.0161    2.7303 H   0  0  0  0  0  0  0  0  0  0  0  0
   -0.6612   -2.6392    2.7166 H   0  0  0  0  0  0  0  0  0  0  0  0
   -2.6315   -1.7811    1.5448 H   0  0  0  0  0  0  0  0  0  0  0  0
   -2.3462   -0.7388    2.9650 H   0  0  0  0  0  0  0  0  0  0  0  0
   -0.3412    2.8552    1.0319 H   0  0  0  0  0  0  0  0  0  0  0  0
   -0.6296    4.9009    2.3979 H   0  0  0  0  0  0  0  0  0  0  0  0
   -2.4627    5.0281    4.0481 H   0  0  0  0  0  0  0  0  0  0  0  0
   -4.0247    3.1364    4.2999 H   0  0  0  0  0  0  0  0  0  0  0  0
   -3.7662    1.1269    2.9140 H   0  0  0  0  0  0  0  0  0  0  0  0
   -2.5982    1.7624   -1.4221 H   0  0  0  0  0  0  0  0  0  0  0  0
   -4.7495    2.1758   -2.5907 H   0  0  0  0  0  0  0  0  0  0  0  0
   -6.8137    1.1029   -1.7645 H   0  0  0  0  0  0  0  0  0  0  0  0
   -6.7330   -0.3590    0.2184 H   0  0  0  0  0  0  0  0  0  0  0  0
   -4.6232   -0.7461    1.3900 H   0  0  0  0  0  0  0  0  0  0  0  0
    0.2326    1.5841   -1.2254 C   0  0  0  0  0  0  0  0  0  0  0  0
    0.2676    2.5620   -1.8568 O   0  0  0  0  0  0  0  0  0  0  0  0
    0.8042    0.6494    1.0203 H   0  0  0  0  0  0  0  0  0  0  0  0
   -4.1114   -0.3288   -4.4174 O   0  0  0  0  0  0  0  0  0  0  0  0
   -3.5867   -0.8259   -3.4471 C   0  0  0  0  0  0  0  0  0  0  0  0
   -4.2294   -1.7772   -2.5347 C   0  0  0  0  0  0  0  0  0  0  0  0
   -3.4956   -2.3603   -1.5029 C   0  0  0  0  0  0  0  0  0  0  0  0
   -4.1003   -3.2642   -0.6501 C   0  0  0  0  0  0  0  0  0  0  0  0
   -5.4409   -3.5814   -0.8101 C   0  0  0  0  0  0  0  0  0  0  0  0
   -6.1793   -2.9996   -1.8297 C   0  0  0  0  0  0  0  0  0  0  0  0
   -5.5765   -2.1057   -2.6926 C   0  0  0  0  0  0  0  0  0  0  0  0
   -0.6807   -2.4438    0.3095 H   0  0  0  0  0  0  0  0  0  0  0  0
   -2.5386   -0.5876   -3.1847 H   0  0  0  0  0  0  0  0  0  0  0  0
   -0.4777   -0.7335   -1.4688 H   0  0  0  0  0  0  0  0  0  0  0  0
   -2.4558   -2.0853   -1.3863 H   0  0  0  0  0  0  0  0  0  0  0  0
   -3.5338   -3.7332    0.1428 H   0  0  0  0  0  0  0  0  0  0  0  0
   -5.9115   -4.2852   -0.1386 H   0  0  0  0  0  0  0  0  0  0  0  0
   -7.2234   -3.2488   -1.9506 H   0  0  0  0  0  0  0  0  0  0  0  0
   -6.1284   -1.6442   -3.4984 H   0  0  0  0  0  0  0  0  0  0  0  0
  1  2  1  0  0  0  0
  2  3  1  0  0  0  0
  3  4  1  0  0  0  0
  1  5  1  0  0  0  0
  4  5  1  0  0  0  0
  5  6  1  0  0  0  0
  6  7  4  0  0  0  0
  7  8  4  0  0  0  0
  8  9  4  0  0  0  0
  9 10  4  0  0  0  0
  6 11  4  0  0  0  0
 10 11  4  0  0  0  0
  5 12  1  0  0  0  0
 12 13  4  0  0  0  0
 13 14  4  0  0  0  0
 14 15  4  0  0  0  0
 15 16  4  0  0  0  0
 12 17  4  0  0  0  0
 16 17  4  0  0  0  0
  2 18  1  0  0  0  0
 18 19  1  0  0  0  0
  1 20  1  0  0  0  0
 19 20  1  0  0  0  0
 20 21  1  0  0  0  0
 21 22  4  0  0  0  0
 22 23  4  0  0  0  0
 23 24  4  0  0  0  0
 24 25  4  0  0  0  0
 21 26  4  0  0  0  0
 25 26  4  0  0  0  0
 20 27  1  0  0  0  0
 27 28  4  0  0  0  0
 28 29  4  0  0  0  0
 29 30  4  0  0  0  0
 30 31  4  0  0  0  0
 27 32  4  0  0  0  0
 31 32  4  0  0  0  0
  3 33  1  0  0  0  0
  3 34  1  0  0  0  0
  4 35  1  0  0  0  0
  4 36  1  0  0  0  0
  7 37  1  0  0  0  0
  8 38  1  0  0  0  0
  9 39  1  0  0  0  0
 10 40  1  0  0  0  0
 11 41  1  0  0  0  0
 13 42  1  0  0  0  0
 14 43  1  0  0  0  0
 15 44  1  0  0  0  0
 16 45  1  0  0  0  0
 17 46  1  0  0  0  0
 18 47  1  0  0  0  0
 18 48  1  0  0  0  0
 19 49  1  0  0  0  0
 19 50  1  0  0  0  0
 22 51  1  0  0  0  0
 23 52  1  0  0  0  0
 24 53  1  0  0  0  0
 25 54  1  0  0  0  0
 26 55  1  0  0  0  0
 28 56  1  0  0  0  0
 29 57  1  0  0  0  0
 30 58  1  0  0  0  0
 31 59  1  0  0  0  0
 32 60  1  0  0  0  0
  1 61  2  0  0  0  0
  1 62  1  0  0  0  0
 61 62  2  0  0  0  0
  1 63  1  0  0  0  0
 64 65  2  0  0  0  0
 65 66  1  0  0  0  0
 66 67  4  0  0  0  0
 67 68  4  0  0  0  0
 68 69  4  0  0  0  0
 69 70  4  0  0  0  0
 66 71  4  0  0  0  0
 70 71  4  0  0  0  0
  2 72  1  0  0  0  0
 65 73  1  0  0  0  0
  1 74  1  0  0  0  0
 67 75  1  0  0  0  0
 68 76  1  0  0  0  0
 69 77  1  0  0  0  0
 70 78  1  0  0  0  0
 71 79  1  0  0  0  0
M  END
