 xtb: 6.7.1 (edcfbbe)
          09132602563D

 75 77  0     0  0            999 V2000
    0.0732    0.0093   -0.5737 Ru  0  0  0  0  0  0  0  0  0  0  0  0
    0.0145   -1.8784   -1.0227 N   0  0  0  0  0  0  0  0  0  0  0  0
    1.1601   -2.7502   -1.2494 C   0  0  0  0  0  0  0  0  0  0  0  0
    2.4916   -2.0786   -0.9074 C   0  0  0  0  0  0  0  0  0  0  0  0
    2.2441   -0.2826   -1.2197 P   0  0  0  0  0  0  0  0  0  0  0  0
    2.5345   -0.2581   -3.0760 C   0  0  0  0  0  0  0  0  0  0  0  0
    3.9980   -0.3346   -3.5030 C   0  0  0  0  0  0  0  0  0  0  0  0
    1.8149    0.9129   -3.7406 C   0  0  0  0  0  0  0  0  0  0  0  0
    3.7430    0.5252   -0.4615 C   0  0  0  0  0  0  0  0  0  0  0  0
    3.7065    2.0196   -0.7744 C   0  0  0  0  0  0  0  0  0  0  0  0
    3.7144    0.3222    1.0509 C   0  0  0  0  0  0  0  0  0  0  0  0
   -1.1910   -2.6846   -1.1498 C   0  0  0  0  0  0  0  0  0  0  0  0
   -2.4520   -1.8305   -1.2838 C   0  0  0  0  0  0  0  0  0  0  0  0
   -2.1918   -0.2630   -0.3371 P   0  0  0  0  0  0  0  0  0  0  0  0
   -3.0001   -0.6814    1.3030 C   0  0  0  0  0  0  0  0  0  0  0  0
   -2.8683    0.4883    2.2763 C   0  0  0  0  0  0  0  0  0  0  0  0
   -2.3643   -1.9366    1.8971 C   0  0  0  0  0  0  0  0  0  0  0  0
   -3.4902    0.8901   -1.0529 C   0  0  0  0  0  0  0  0  0  0  0  0
   -3.1620    2.3362   -0.6712 C   0  0  0  0  0  0  0  0  0  0  0  0
   -3.5958    0.7921   -2.5738 C   0  0  0  0  0  0  0  0  0  0  0  0
    1.1674   -3.0873   -2.3037 H   0  0  0  0  0  0  0  0  0  0  0  0
    1.0471   -3.6603   -0.6331 H   0  0  0  0  0  0  0  0  0  0  0  0
    2.6986   -2.2150    0.1556 H   0  0  0  0  0  0  0  0  0  0  0  0
    3.3156   -2.5007   -1.4893 H   0  0  0  0  0  0  0  0  0  0  0  0
    2.0324   -1.1790   -3.4108 H   0  0  0  0  0  0  0  0  0  0  0  0
    4.0530   -0.5207   -4.5755 H   0  0  0  0  0  0  0  0  0  0  0  0
    4.5183    0.5981   -3.2994 H   0  0  0  0  0  0  0  0  0  0  0  0
    4.5208   -1.1434   -2.9951 H   0  0  0  0  0  0  0  0  0  0  0  0
    0.7582    0.9057   -3.4619 H   0  0  0  0  0  0  0  0  0  0  0  0
    1.8860    0.8356   -4.8255 H   0  0  0  0  0  0  0  0  0  0  0  0
    2.2364    1.8687   -3.4366 H   0  0  0  0  0  0  0  0  0  0  0  0
    4.6483    0.0677   -0.8776 H   0  0  0  0  0  0  0  0  0  0  0  0
    4.5030    2.5390   -0.2428 H   0  0  0  0  0  0  0  0  0  0  0  0
    3.8267    2.2153   -1.8373 H   0  0  0  0  0  0  0  0  0  0  0  0
    2.7494    2.4343   -0.4535 H   0  0  0  0  0  0  0  0  0  0  0  0
    4.5224    0.8822    1.5198 H   0  0  0  0  0  0  0  0  0  0  0  0
    2.7649    0.6918    1.4421 H   0  0  0  0  0  0  0  0  0  0  0  0
    3.8265   -0.7243    1.3254 H   0  0  0  0  0  0  0  0  0  0  0  0
   -1.2686   -3.3643   -0.2842 H   0  0  0  0  0  0  0  0  0  0  0  0
   -1.1069   -3.3326   -2.0434 H   0  0  0  0  0  0  0  0  0  0  0  0
   -3.3495   -2.3694   -0.9672 H   0  0  0  0  0  0  0  0  0  0  0  0
   -2.5609   -1.5500   -2.3350 H   0  0  0  0  0  0  0  0  0  0  0  0
   -4.0636   -0.8769    1.1052 H   0  0  0  0  0  0  0  0  0  0  0  0
   -3.5254    1.3093    2.0010 H   0  0  0  0  0  0  0  0  0  0  0  0
   -1.8372    0.8468    2.2832 H   0  0  0  0  0  0  0  0  0  0  0  0
   -3.1335    0.1733    3.2850 H   0  0  0  0  0  0  0  0  0  0  0  0
   -2.6861   -2.8334    1.3723 H   0  0  0  0  0  0  0  0  0  0  0  0
   -2.6510   -2.0466    2.9427 H   0  0  0  0  0  0  0  0  0  0  0  0
   -1.2779   -1.8693    1.8454 H   0  0  0  0  0  0  0  0  0  0  0  0
   -4.4511    0.6042   -0.6048 H   0  0  0  0  0  0  0  0  0  0  0  0
   -4.0571    2.9551   -0.7193 H   0  0  0  0  0  0  0  0  0  0  0  0
   -2.7369    2.4074    0.3274 H   0  0  0  0  0  0  0  0  0  0  0  0
   -2.4303    2.7450   -1.3636 H   0  0  0  0  0  0  0  0  0  0  0  0
   -2.6012    0.8385   -3.0219 H   0  0  0  0  0  0  0  0  0  0  0  0
   -4.0925   -0.1218   -2.8930 H   0  0  0  0  0  0  0  0  0  0  0  0
   -4.1737    1.6342   -2.9529 H   0  0  0  0  0  0  0  0  0  0  0  0
    0.0500    1.7756   -1.0786 C   0  0  0  0  0  0  0  0  0  0  0  0
    0.0631    2.8535   -1.5200 O   0  0  0  0  0  0  0  0  0  0  0  0
    0.3205    0.5467    0.8812 H   0  0  0  0  0  0  0  0  0  0  0  0
    1.2709   -2.1256    2.0607 O   0  0  0  0  0  0  0  0  0  0  0  0
    1.3423   -1.6077    3.3680 C   0  0  0  0  0  0  0  0  0  0  0  0
    2.1698   -2.5004    4.2579 C   0  0  0  0  0  0  0  0  0  0  0  0
    2.0350   -2.4154    5.6389 C   0  0  0  0  0  0  0  0  0  0  0  0
    2.8064   -3.2079    6.4692 C   0  0  0  0  0  0  0  0  0  0  0  0
    3.7197   -4.0993    5.9294 C   0  0  0  0  0  0  0  0  0  0  0  0
    3.8563   -4.1914    4.5554 C   0  0  0  0  0  0  0  0  0  0  0  0
    3.0878   -3.3940    3.7249 C   0  0  0  0  0  0  0  0  0  0  0  0
    0.9198   -1.4333    1.4650 H   0  0  0  0  0  0  0  0  0  0  0  0
    1.7989   -0.6049    3.3588 H   0  0  0  0  0  0  0  0  0  0  0  0
    0.3323   -1.5043    3.7958 H   0  0  0  0  0  0  0  0  0  0  0  0
    1.3209   -1.7229    6.0628 H   0  0  0  0  0  0  0  0  0  0  0  0
    2.6931   -3.1332    7.5414 H   0  0  0  0  0  0  0  0  0  0  0  0
    4.3200   -4.7205    6.5785 H   0  0  0  0  0  0  0  0  0  0  0  0
    4.5651   -4.8861    4.1273 H   0  0  0  0  0  0  0  0  0  0  0  0
    3.1860   -3.4689    2.6525 H   0  0  0  0  0  0  0  0  0  0  0  0
  1  2  1  0  0  0  0
  2  3  1  0  0  0  0
  3  4  1  0  0  0  0
  1  5  1  0  0  0  0
  4  5  1  0  0  0  0
  5  6  1  0  0  0  0
  6  7  1  0  0  0  0
  6  8  1  0  0  0  0
  5  9  1  0  0  0  0
  9 10  1  0  0  0  0
  9 11  1  0  0  0  0
  2 12  1  0  0  0  0
 12 13  1  0  0  0  0
  1 14  1  0  0  0  0
 13 14  1  0  0  0  0
 14 15  1  0  0  0  0
 15 16  1  0  0  0  0
 15 17  1  0  0  0  0
 14 18  1  0  0  0  0
 18 19  1  0  0  0  0
 18 20  1  0  0  0  0
  3 21  1  0  0  0  0
  3 22  1  0  0  0  0
  4 23  1  0  0  0  0
  4 24  1  0  0  0  0
  6 25  1  0  0  0  0
  7 26  1  0  0  0  0
  7 27  1  0  0  0  0
  7 28  1  0  0  0  0
  8 29  1  0  0  0  0
  8 30  1  0  0  0  0
  8 31  1  0  0  0  0
  9 32  1  0  0  0  0
 10 33  1  0  0  0  0
 10 34  1  0  0  0  0
 10 35  1  0  0  0  0
 11 36  1  0  0  0  0
 11 37  1  0  0  0  0
 11 38  1  0  0  0  0
 12 39  1  0  0  0  0
 12 40  1  0  0  0  0
 13 41  1  0  0  0  0
 13 42  1  0  0  0  0
 15 43  1  0  0  0  0
 16 44  1  0  0  0  0
 16 45  1  0  0  0  0
 16 46  1  0  0  0  0
 17 47  1  0  0  0  0
 17 48  1  0  0  0  0
 17 49  1  0  0  0  0
 18 50  1  0  0  0  0
 19 51  1  0  0  0  0
 19 52  1  0  0  0  0
 19 53  1  0  0  0  0
 20 54  1  0  0  0  0
 20 55  1  0  0  0  0
 20 56  1  0  0  0  0
  1 57  2  0  0  0  0
  1 58  1  0  0  0  0
 57 58  2  0  0  0  0
  1 59  1  0  0  0  0
 60 61  1  0  0  0  0
 61 62  1  0  0  0  0
 62 63  4  0  0  0  0
 63 64  4  0  0  0  0
 64 65  4  0  0  0  0
 65 66  4  0  0  0  0
 62 67  4  0  0  0  0
 66 67  4  0  0  0  0
 60 68  1  0  0  0  0
 61 69  1  0  0  0  0
 61 70  1  0  0  0  0
 63 71  1  0  0  0  0
 64 72  1  0  0  0  0
 65 73  1  0  0  0  0
 66 74  1  0  0  0  0
 67 75  1  0  0  0  0
M  END
