 xtb: 6.7.1 (edcfbbe)
          09162613583D

 62 65  0     0  0            999 V2000
   -0.0993   -0.0253   -0.0984 Mn  0  0  0  0  0  0  0  0  0  0  0  0
   -0.6307    0.2345    2.2627 Br  0  0  0  0  0  0  0  0  0  0  0  0
    1.4043    2.9052    0.0185 C   0  0  0  0  0  0  0  0  0  0  0  0
    1.6514    3.7925   -0.5663 H   0  0  0  0  0  0  0  0  0  0  0  0
    1.3894    3.1731    1.0817 H   0  0  0  0  0  0  0  0  0  0  0  0
    2.4357    1.8039   -0.2137 C   0  0  0  0  0  0  0  0  0  0  0  0
    2.5297    1.5852   -1.2841 H   0  0  0  0  0  0  0  0  0  0  0  0
    3.4219    2.1252    0.1576 H   0  0  0  0  0  0  0  0  0  0  0  0
    2.9627   -0.4952    0.4781 C   0  0  0  0  0  0  0  0  0  0  0  0
    3.9095   -0.1728    0.9396 H   0  0  0  0  0  0  0  0  0  0  0  0
    3.1704   -0.7843   -0.5590 H   0  0  0  0  0  0  0  0  0  0  0  0
    2.3642   -1.6661    1.2542 C   0  0  0  0  0  0  0  0  0  0  0  0
    2.1526   -1.3497    2.2812 H   0  0  0  0  0  0  0  0  0  0  0  0
    3.0368   -2.5238    1.2841 H   0  0  0  0  0  0  0  0  0  0  0  0
   -1.3665    3.2959    0.7148 C   0  0  0  0  0  0  0  0  0  0  0  0
   -1.0936    2.9047    1.7059 H   0  0  0  0  0  0  0  0  0  0  0  0
   -2.8341    2.9484    0.4725 C   0  0  0  0  0  0  0  0  0  0  0  0
   -3.4424    3.2774    1.3133 H   0  0  0  0  0  0  0  0  0  0  0  0
   -2.9583    1.8686    0.3643 H   0  0  0  0  0  0  0  0  0  0  0  0
   -3.2092    3.4300   -0.4282 H   0  0  0  0  0  0  0  0  0  0  0  0
   -1.1461    4.8064    0.7434 C   0  0  0  0  0  0  0  0  0  0  0  0
   -1.5949    5.2948   -0.1156 H   0  0  0  0  0  0  0  0  0  0  0  0
   -0.0914    5.0677    0.7849 H   0  0  0  0  0  0  0  0  0  0  0  0
   -1.6244    5.2057    1.6372 H   0  0  0  0  0  0  0  0  0  0  0  0
   -0.4702    2.8437   -2.1811 C   0  0  0  0  0  0  0  0  0  0  0  0
    0.4262    2.4058   -2.6487 H   0  0  0  0  0  0  0  0  0  0  0  0
   -1.6962    2.2134   -2.8411 C   0  0  0  0  0  0  0  0  0  0  0  0
   -2.6137    2.6774   -2.4870 H   0  0  0  0  0  0  0  0  0  0  0  0
   -1.7519    1.1458   -2.6266 H   0  0  0  0  0  0  0  0  0  0  0  0
   -1.6454    2.3416   -3.9214 H   0  0  0  0  0  0  0  0  0  0  0  0
   -0.4581    4.3487   -2.4368 C   0  0  0  0  0  0  0  0  0  0  0  0
   -0.2605    4.5264   -3.4935 H   0  0  0  0  0  0  0  0  0  0  0  0
    0.3052    4.8667   -1.8614 H   0  0  0  0  0  0  0  0  0  0  0  0
   -1.4266    4.7845   -2.2062 H   0  0  0  0  0  0  0  0  0  0  0  0
   -0.0312   -3.3626    1.5918 C   0  0  0  0  0  0  0  0  0  0  0  0
    0.2692   -4.3386    1.1901 H   0  0  0  0  0  0  0  0  0  0  0  0
    0.4184   -3.2806    3.0482 C   0  0  0  0  0  0  0  0  0  0  0  0
    0.1931   -2.3050    3.4739 H   0  0  0  0  0  0  0  0  0  0  0  0
    1.4821   -3.4844    3.1525 H   0  0  0  0  0  0  0  0  0  0  0  0
   -0.1250   -4.0268    3.6264 H   0  0  0  0  0  0  0  0  0  0  0  0
   -1.5538   -3.2549    1.4946 C   0  0  0  0  0  0  0  0  0  0  0  0
   -2.0244   -4.1104    1.9771 H   0  0  0  0  0  0  0  0  0  0  0  0
   -1.8835   -3.2193    0.4560 H   0  0  0  0  0  0  0  0  0  0  0  0
   -1.9051   -2.3542    1.9935 H   0  0  0  0  0  0  0  0  0  0  0  0
    1.2990   -3.1510   -0.9896 C   0  0  0  0  0  0  0  0  0  0  0  0
    1.7786   -2.4432   -1.6794 H   0  0  0  0  0  0  0  0  0  0  0  0
    2.3013   -4.2616   -0.6800 C   0  0  0  0  0  0  0  0  0  0  0  0
    1.9649   -4.9032    0.1319 H   0  0  0  0  0  0  0  0  0  0  0  0
    3.2796   -3.8605   -0.4245 H   0  0  0  0  0  0  0  0  0  0  0  0
    2.4222   -4.8836   -1.5659 H   0  0  0  0  0  0  0  0  0  0  0  0
    0.0580   -3.7063   -1.6890 C   0  0  0  0  0  0  0  0  0  0  0  0
    0.3210   -4.1085   -2.6663 H   0  0  0  0  0  0  0  0  0  0  0  0
   -0.6801   -2.9142   -1.8358 H   0  0  0  0  0  0  0  0  0  0  0  0
   -0.3983   -4.5035   -1.1052 H   0  0  0  0  0  0  0  0  0  0  0  0
   -1.7209   -0.5214   -0.5665 C   0  0  0  0  0  0  0  0  0  0  0  0
    0.3410   -0.2353   -1.7744 C   0  0  0  0  0  0  0  0  0  0  0  0
    1.9867    0.5947    0.4738 N   0  0  0  0  0  0  0  0  0  0  0  0
   -2.7663   -0.8689   -0.9492 O   0  0  0  0  0  0  0  0  0  0  0  0
    0.5726   -0.3989   -2.9048 O   0  0  0  0  0  0  0  0  0  0  0  0
   -0.2907    2.2610   -0.4098 P   0  0  0  0  0  0  0  0  0  0  0  0
    0.7438   -2.0907    0.4536 P   0  0  0  0  0  0  0  0  0  0  0  0
    1.8375    0.8534    1.4576 H   0  0  0  0  0  0  0  0  0  0  0  0
  1  2  1  0  0  0  0
  3  4  1  0  0  0  0
  3  5  1  0  0  0  0
  3  6  1  0  0  0  0
  6  7  1  0  0  0  0
  6  8  1  0  0  0  0
  9 10  1  0  0  0  0
  9 11  1  0  0  0  0
  9 12  1  0  0  0  0
 12 13  1  0  0  0  0
 12 14  1  0  0  0  0
 15 16  1  0  0  0  0
 15 17  1  0  0  0  0
 17 18  1  0  0  0  0
 17 19  1  0  0  0  0
 17 20  1  0  0  0  0
 15 21  1  0  0  0  0
 21 22  1  0  0  0  0
 21 23  1  0  0  0  0
 21 24  1  0  0  0  0
 25 26  1  0  0  0  0
 25 27  1  0  0  0  0
 27 28  1  0  0  0  0
 27 29  1  0  0  0  0
 27 30  1  0  0  0  0
 25 31  1  0  0  0  0
 31 32  1  0  0  0  0
 31 33  1  0  0  0  0
 31 34  1  0  0  0  0
 35 36  1  0  0  0  0
 35 37  1  0  0  0  0
 37 38  1  0  0  0  0
 37 39  1  0  0  0  0
 37 40  1  0  0  0  0
 35 41  1  0  0  0  0
 41 42  1  0  0  0  0
 41 43  1  0  0  0  0
 41 44  1  0  0  0  0
 45 46  1  0  0  0  0
 45 47  1  0  0  0  0
 47 48  1  0  0  0  0
 47 49  1  0  0  0  0
 47 50  1  0  0  0  0
 45 51  1  0  0  0  0
 51 52  1  0  0  0  0
 51 53  1  0  0  0  0
 51 54  1  0  0  0  0
  1 55  2  0  0  0  0
  1 56  2  0  0  0  0
  1 57  1  0  0  0  0
  6 57  1  0  0  0  0
  9 57  1  0  0  0  0
  1 58  1  0  0  0  0
 55 58  2  0  0  0  0
  1 59  1  0  0  0  0
 56 59  2  0  0  0  0
  1 60  1  0  0  0  0
  3 60  1  0  0  0  0
 15 60  1  0  0  0  0
 25 60  1  0  0  0  0
  1 61  1  0  0  0  0
 12 61  1  0  0  0  0
 35 61  1  0  0  0  0
 45 61  1  0  0  0  0
 57 62  1  0  0  0  0
M  END
