 xtb: 6.7.1 (edcfbbe)
          09132601373D

 76 79  0     0  0            999 V2000
    0.4207   -0.0523    0.1636 Mn  0  0  0  0  0  0  0  0  0  0  0  0
    0.3081   -1.8660    0.4616 N   0  0  0  0  0  0  0  0  0  0  0  0
    1.3961   -2.8358    0.3255 C   0  0  0  0  0  0  0  0  0  0  0  0
    2.4601   -2.3948   -0.6797 C   0  0  0  0  0  0  0  0  0  0  0  0
    2.4356   -0.5558   -0.6870 P   0  0  0  0  0  0  0  0  0  0  0  0
    2.8083   -0.1219   -2.4696 C   0  0  0  0  0  0  0  0  0  0  0  0
    4.1207   -0.6931   -3.0035 C   0  0  0  0  0  0  0  0  0  0  0  0
    1.6376   -0.5407   -3.3599 C   0  0  0  0  0  0  0  0  0  0  0  0
    4.0333   -0.1106    0.1601 C   0  0  0  0  0  0  0  0  0  0  0  0
    3.9791   -0.5468    1.6211 C   0  0  0  0  0  0  0  0  0  0  0  0
    4.2575    1.3963    0.0625 C   0  0  0  0  0  0  0  0  0  0  0  0
   -0.8295   -2.6098    0.9974 C   0  0  0  0  0  0  0  0  0  0  0  0
   -2.0188   -1.7210    1.3643 C   0  0  0  0  0  0  0  0  0  0  0  0
   -1.7861   -0.1606    0.4273 P   0  0  0  0  0  0  0  0  0  0  0  0
   -2.8636    1.0638    1.3275 C   0  0  0  0  0  0  0  0  0  0  0  0
   -2.7873    2.4024    0.5954 C   0  0  0  0  0  0  0  0  0  0  0  0
   -2.4092    1.2368    2.7742 C   0  0  0  0  0  0  0  0  0  0  0  0
   -2.7280   -0.4036   -1.1762 C   0  0  0  0  0  0  0  0  0  0  0  0
   -4.2442   -0.5295   -1.0400 C   0  0  0  0  0  0  0  0  0  0  0  0
   -2.1560   -1.6109   -1.9196 C   0  0  0  0  0  0  0  0  0  0  0  0
    1.8525   -3.0040    1.3143 H   0  0  0  0  0  0  0  0  0  0  0  0
    0.9869   -3.8080   -0.0001 H   0  0  0  0  0  0  0  0  0  0  0  0
    3.4471   -2.7920   -0.4309 H   0  0  0  0  0  0  0  0  0  0  0  0
    2.1821   -2.7386   -1.6804 H   0  0  0  0  0  0  0  0  0  0  0  0
    2.8536    0.9759   -2.4774 H   0  0  0  0  0  0  0  0  0  0  0  0
    4.1933   -0.4886   -4.0713 H   0  0  0  0  0  0  0  0  0  0  0  0
    4.1654   -1.7720   -2.8639 H   0  0  0  0  0  0  0  0  0  0  0  0
    4.9837   -0.2417   -2.5209 H   0  0  0  0  0  0  0  0  0  0  0  0
    1.7303   -0.0817   -4.3433 H   0  0  0  0  0  0  0  0  0  0  0  0
    1.6075   -1.6211   -3.4965 H   0  0  0  0  0  0  0  0  0  0  0  0
    0.6917   -0.2146   -2.9228 H   0  0  0  0  0  0  0  0  0  0  0  0
    4.8441   -0.6527   -0.3429 H   0  0  0  0  0  0  0  0  0  0  0  0
    4.9244   -0.3251    2.1150 H   0  0  0  0  0  0  0  0  0  0  0  0
    3.7865   -1.6133    1.7184 H   0  0  0  0  0  0  0  0  0  0  0  0
    3.1881   -0.0093    2.1406 H   0  0  0  0  0  0  0  0  0  0  0  0
    3.3629    1.9225    0.4020 H   0  0  0  0  0  0  0  0  0  0  0  0
    5.0933    1.6960    0.6931 H   0  0  0  0  0  0  0  0  0  0  0  0
    4.4727    1.7070   -0.9576 H   0  0  0  0  0  0  0  0  0  0  0  0
   -0.5031   -3.1735    1.8889 H   0  0  0  0  0  0  0  0  0  0  0  0
   -1.1461   -3.3644    0.2561 H   0  0  0  0  0  0  0  0  0  0  0  0
   -1.9772   -1.4632    2.4259 H   0  0  0  0  0  0  0  0  0  0  0  0
   -2.9756   -2.2060    1.1566 H   0  0  0  0  0  0  0  0  0  0  0  0
   -3.8921    0.6835    1.3223 H   0  0  0  0  0  0  0  0  0  0  0  0
   -3.1481    2.3266   -0.4284 H   0  0  0  0  0  0  0  0  0  0  0  0
   -3.3837    3.1528    1.1124 H   0  0  0  0  0  0  0  0  0  0  0  0
   -1.7511    2.7434    0.5690 H   0  0  0  0  0  0  0  0  0  0  0  0
   -2.9355    2.0745    3.2292 H   0  0  0  0  0  0  0  0  0  0  0  0
   -2.6131    0.3541    3.3750 H   0  0  0  0  0  0  0  0  0  0  0  0
   -1.3415    1.4473    2.8144 H   0  0  0  0  0  0  0  0  0  0  0  0
   -2.4904    0.4971   -1.7616 H   0  0  0  0  0  0  0  0  0  0  0  0
   -4.5158   -1.2958   -0.3154 H   0  0  0  0  0  0  0  0  0  0  0  0
   -4.7037    0.4101   -0.7437 H   0  0  0  0  0  0  0  0  0  0  0  0
   -4.6655   -0.8158   -2.0035 H   0  0  0  0  0  0  0  0  0  0  0  0
   -1.0641   -1.6046   -1.8743 H   0  0  0  0  0  0  0  0  0  0  0  0
   -2.5204   -2.5398   -1.4834 H   0  0  0  0  0  0  0  0  0  0  0  0
   -2.4526   -1.5892   -2.9679 H   0  0  0  0  0  0  0  0  0  0  0  0
    0.2662    1.3441   -0.9020 C   0  0  0  0  0  0  0  0  0  0  0  0
    0.1755    2.2845   -1.5866 O   0  0  0  0  0  0  0  0  0  0  0  0
    0.8673    1.0433    1.4703 C   0  0  0  0  0  0  0  0  0  0  0  0
    1.1671    1.7761    2.3339 O   0  0  0  0  0  0  0  0  0  0  0  0
    1.3455   -1.6618    3.4626 O   0  0  0  0  0  0  0  0  0  0  0  0
    1.2317   -0.8257    4.5893 C   0  0  0  0  0  0  0  0  0  0  0  0
   -0.1790   -0.7013    5.1140 C   0  0  0  0  0  0  0  0  0  0  0  0
   -0.6006    0.4647    5.7395 C   0  0  0  0  0  0  0  0  0  0  0  0
   -1.8852    0.5622    6.2449 C   0  0  0  0  0  0  0  0  0  0  0  0
   -2.7652   -0.5008    6.1213 C   0  0  0  0  0  0  0  0  0  0  0  0
   -2.3535   -1.6642    5.4929 C   0  0  0  0  0  0  0  0  0  0  0  0
   -1.0651   -1.7643    4.9966 C   0  0  0  0  0  0  0  0  0  0  0  0
    0.9152   -1.2186    2.7109 H   0  0  0  0  0  0  0  0  0  0  0  0
    1.8615   -1.2873    5.3607 H   0  0  0  0  0  0  0  0  0  0  0  0
    1.6358    0.1735    4.3766 H   0  0  0  0  0  0  0  0  0  0  0  0
    0.0820    1.2978    5.8286 H   0  0  0  0  0  0  0  0  0  0  0  0
   -2.2029    1.4724    6.7322 H   0  0  0  0  0  0  0  0  0  0  0  0
   -3.7692   -0.4222    6.5127 H   0  0  0  0  0  0  0  0  0  0  0  0
   -3.0352   -2.4974    5.3933 H   0  0  0  0  0  0  0  0  0  0  0  0
   -0.7317   -2.6737    4.5158 H   0  0  0  0  0  0  0  0  0  0  0  0
  1  2  1  0  0  0  0
  2  3  1  0  0  0  0
  3  4  1  0  0  0  0
  1  5  1  0  0  0  0
  4  5  1  0  0  0  0
  5  6  1  0  0  0  0
  6  7  1  0  0  0  0
  6  8  1  0  0  0  0
  5  9  1  0  0  0  0
  9 10  1  0  0  0  0
  9 11  1  0  0  0  0
  2 12  1  0  0  0  0
 12 13  1  0  0  0  0
  1 14  1  0  0  0  0
 13 14  1  0  0  0  0
 14 15  1  0  0  0  0
 15 16  1  0  0  0  0
 15 17  1  0  0  0  0
 14 18  1  0  0  0  0
 18 19  1  0  0  0  0
 18 20  1  0  0  0  0
  3 21  1  0  0  0  0
  3 22  1  0  0  0  0
  4 23  1  0  0  0  0
  4 24  1  0  0  0  0
  6 25  1  0  0  0  0
  7 26  1  0  0  0  0
  7 27  1  0  0  0  0
  7 28  1  0  0  0  0
  8 29  1  0  0  0  0
  8 30  1  0  0  0  0
  8 31  1  0  0  0  0
  9 32  1  0  0  0  0
 10 33  1  0  0  0  0
 10 34  1  0  0  0  0
 10 35  1  0  0  0  0
 11 36  1  0  0  0  0
 11 37  1  0  0  0  0
 11 38  1  0  0  0  0
 12 39  1  0  0  0  0
 12 40  1  0  0  0  0
 13 41  1  0  0  0  0
 13 42  1  0  0  0  0
 15 43  1  0  0  0  0
 16 44  1  0  0  0  0
 16 45  1  0  0  0  0
 16 46  1  0  0  0  0
 17 47  1  0  0  0  0
 17 48  1  0  0  0  0
 17 49  1  0  0  0  0
 18 50  1  0  0  0  0
 19 51  1  0  0  0  0
 19 52  1  0  0  0  0
 19 53  1  0  0  0  0
 20 54  1  0  0  0  0
 20 55  1  0  0  0  0
 20 56  1  0  0  0  0
  1 57  2  0  0  0  0
  1 58  1  0  0  0  0
 57 58  2  0  0  0  0
  1 59  2  0  0  0  0
  1 60  1  0  0  0  0
 59 60  2  0  0  0  0
 61 62  1  0  0  0  0
 62 63  1  0  0  0  0
 63 64  4  0  0  0  0
 64 65  4  0  0  0  0
 65 66  4  0  0  0  0
 66 67  4  0  0  0  0
 63 68  4  0  0  0  0
 67 68  4  0  0  0  0
 61 69  1  0  0  0  0
 62 70  1  0  0  0  0
 62 71  1  0  0  0  0
 64 72  1  0  0  0  0
 65 73  1  0  0  0  0
 66 74  1  0  0  0  0
 67 75  1  0  0  0  0
 68 76  1  0  0  0  0
M  END
