 xtb: 6.7.1 (edcfbbe)
          09132601403D

 78 82  0     0  0            999 V2000
   -0.2391   -0.2349   -0.4800 Co  0  0  0  0  0  0  0  0  0  0  0  0
    0.2996   -2.2228    0.1865 N   0  0  0  0  0  0  0  0  0  0  0  0
    1.5607   -2.8650   -0.1199 C   0  0  0  0  0  0  0  0  0  0  0  0
    2.4775   -1.8753   -0.8564 C   0  0  0  0  0  0  0  0  0  0  0  0
    1.9143   -0.1071   -0.6737 P   0  0  0  0  0  0  0  0  0  0  0  0
    2.8786    0.4464    0.7721 C   0  0  0  0  0  0  0  0  0  0  0  0
    2.6926   -0.2340    1.9732 C   0  0  0  0  0  0  0  0  0  0  0  0
    3.3588    0.1665    3.1151 C   0  0  0  0  0  0  0  0  0  0  0  0
    4.2076    1.2621    3.0740 C   0  0  0  0  0  0  0  0  0  0  0  0
    4.3766    1.9584    1.8891 C   0  0  0  0  0  0  0  0  0  0  0  0
    3.7127    1.5582    0.7419 C   0  0  0  0  0  0  0  0  0  0  0  0
    2.7970    0.7101   -2.0418 C   0  0  0  0  0  0  0  0  0  0  0  0
    2.1265    1.7197   -2.7224 C   0  0  0  0  0  0  0  0  0  0  0  0
    2.7484    2.4022   -3.7528 C   0  0  0  0  0  0  0  0  0  0  0  0
    4.0433    2.0711   -4.1147 C   0  0  0  0  0  0  0  0  0  0  0  0
    4.7166    1.0641   -3.4401 C   0  0  0  0  0  0  0  0  0  0  0  0
    4.1018    0.3874   -2.4022 C   0  0  0  0  0  0  0  0  0  0  0  0
   -0.7494   -3.0542    0.7400 C   0  0  0  0  0  0  0  0  0  0  0  0
   -1.8546   -2.1415    1.2819 C   0  0  0  0  0  0  0  0  0  0  0  0
   -2.2599   -0.8464    0.0117 P   0  0  0  0  0  0  0  0  0  0  0  0
   -3.4795    0.2266    0.8291 C   0  0  0  0  0  0  0  0  0  0  0  0
   -3.5519    0.4222    2.2033 C   0  0  0  0  0  0  0  0  0  0  0  0
   -4.4698    1.3158    2.7287 C   0  0  0  0  0  0  0  0  0  0  0  0
   -5.3118    2.0283    1.8916 C   0  0  0  0  0  0  0  0  0  0  0  0
   -5.2297    1.8544    0.5183 C   0  0  0  0  0  0  0  0  0  0  0  0
   -4.3149    0.9644   -0.0093 C   0  0  0  0  0  0  0  0  0  0  0  0
   -3.3649   -1.8380   -1.0647 C   0  0  0  0  0  0  0  0  0  0  0  0
   -2.9650   -2.2035   -2.3427 C   0  0  0  0  0  0  0  0  0  0  0  0
   -3.7784   -3.0019   -3.1293 C   0  0  0  0  0  0  0  0  0  0  0  0
   -4.9986   -3.4383   -2.6425 C   0  0  0  0  0  0  0  0  0  0  0  0
   -5.4061   -3.0732   -1.3680 C   0  0  0  0  0  0  0  0  0  0  0  0
   -4.5947   -2.2790   -0.5804 C   0  0  0  0  0  0  0  0  0  0  0  0
    1.4272   -3.7673   -0.7434 H   0  0  0  0  0  0  0  0  0  0  0  0
    2.0249   -3.1867    0.8226 H   0  0  0  0  0  0  0  0  0  0  0  0
    2.4676   -2.0746   -1.9325 H   0  0  0  0  0  0  0  0  0  0  0  0
    3.5086   -1.9671   -0.5056 H   0  0  0  0  0  0  0  0  0  0  0  0
    2.0096   -1.0712    2.0063 H   0  0  0  0  0  0  0  0  0  0  0  0
    3.2138   -0.3703    4.0422 H   0  0  0  0  0  0  0  0  0  0  0  0
    4.7280    1.5780    3.9666 H   0  0  0  0  0  0  0  0  0  0  0  0
    5.0262    2.8217    1.8572 H   0  0  0  0  0  0  0  0  0  0  0  0
    3.8423    2.1127   -0.1774 H   0  0  0  0  0  0  0  0  0  0  0  0
    1.1090    1.9510   -2.4308 H   0  0  0  0  0  0  0  0  0  0  0  0
    2.2231    3.1880   -4.2758 H   0  0  0  0  0  0  0  0  0  0  0  0
    4.5313    2.5994   -4.9209 H   0  0  0  0  0  0  0  0  0  0  0  0
    5.7294    0.8100   -3.7194 H   0  0  0  0  0  0  0  0  0  0  0  0
    4.6381   -0.3860   -1.8713 H   0  0  0  0  0  0  0  0  0  0  0  0
   -1.1688   -3.7538   -0.0077 H   0  0  0  0  0  0  0  0  0  0  0  0
   -0.3355   -3.6535    1.5613 H   0  0  0  0  0  0  0  0  0  0  0  0
   -2.7464   -2.7104    1.5583 H   0  0  0  0  0  0  0  0  0  0  0  0
   -1.4697   -1.6159    2.1601 H   0  0  0  0  0  0  0  0  0  0  0  0
   -2.8959   -0.1174    2.8707 H   0  0  0  0  0  0  0  0  0  0  0  0
   -4.5250    1.4580    3.7987 H   0  0  0  0  0  0  0  0  0  0  0  0
   -6.0260    2.7240    2.3075 H   0  0  0  0  0  0  0  0  0  0  0  0
   -5.8773    2.4170   -0.1388 H   0  0  0  0  0  0  0  0  0  0  0  0
   -4.2353    0.8274   -1.0809 H   0  0  0  0  0  0  0  0  0  0  0  0
   -2.0158   -1.8493   -2.7214 H   0  0  0  0  0  0  0  0  0  0  0  0
   -3.4592   -3.2817   -4.1232 H   0  0  0  0  0  0  0  0  0  0  0  0
   -5.6354   -4.0600   -3.2550 H   0  0  0  0  0  0  0  0  0  0  0  0
   -6.3601   -3.4101   -0.9881 H   0  0  0  0  0  0  0  0  0  0  0  0
   -4.9169   -1.9896    0.4115 H   0  0  0  0  0  0  0  0  0  0  0  0
   -0.2846    0.8574    0.8826 C   0  0  0  0  0  0  0  0  0  0  0  0
   -0.3828    1.7508    1.6163 O   0  0  0  0  0  0  0  0  0  0  0  0
    3.3068   -2.4182   -4.0672 O   0  0  0  0  0  0  0  0  0  0  0  0
    3.4404   -1.6120   -4.9606 C   0  0  0  0  0  0  0  0  0  0  0  0
    2.4313   -0.6582   -5.4102 C   0  0  0  0  0  0  0  0  0  0  0  0
    1.1937   -0.5881   -4.7679 C   0  0  0  0  0  0  0  0  0  0  0  0
    0.2441    0.3238   -5.1823 C   0  0  0  0  0  0  0  0  0  0  0  0
    0.5187    1.1711   -6.2448 C   0  0  0  0  0  0  0  0  0  0  0  0
    1.7442    1.1065   -6.8935 C   0  0  0  0  0  0  0  0  0  0  0  0
    2.6993    0.1997   -6.4789 C   0  0  0  0  0  0  0  0  0  0  0  0
   -0.0622   -1.7874   -0.6978 H   0  0  0  0  0  0  0  0  0  0  0  0
    4.3953   -1.5555   -5.5217 H   0  0  0  0  0  0  0  0  0  0  0  0
   -0.3681   -0.4076   -1.9283 H   0  0  0  0  0  0  0  0  0  0  0  0
    1.0001   -1.2495   -3.9369 H   0  0  0  0  0  0  0  0  0  0  0  0
   -0.7041    0.3820   -4.6691 H   0  0  0  0  0  0  0  0  0  0  0  0
   -0.2237    1.8858   -6.5691 H   0  0  0  0  0  0  0  0  0  0  0  0
    1.9515    1.7689   -7.7212 H   0  0  0  0  0  0  0  0  0  0  0  0
    3.6572    0.1467   -6.9770 H   0  0  0  0  0  0  0  0  0  0  0  0
  2  3  1  0  0  0  0
  3  4  1  0  0  0  0
  1  5  1  0  0  0  0
  4  5  1  0  0  0  0
  5  6  1  0  0  0  0
  6  7  4  0  0  0  0
  7  8  4  0  0  0  0
  8  9  4  0  0  0  0
  9 10  4  0  0  0  0
  6 11  4  0  0  0  0
 10 11  4  0  0  0  0
  5 12  1  0  0  0  0
 12 13  4  0  0  0  0
 13 14  4  0  0  0  0
 14 15  4  0  0  0  0
 15 16  4  0  0  0  0
 12 17  4  0  0  0  0
 16 17  4  0  0  0  0
  2 18  1  0  0  0  0
 18 19  1  0  0  0  0
  1 20  1  0  0  0  0
 19 20  1  0  0  0  0
 20 21  1  0  0  0  0
 21 22  4  0  0  0  0
 22 23  4  0  0  0  0
 23 24  4  0  0  0  0
 24 25  4  0  0  0  0
 21 26  4  0  0  0  0
 25 26  4  0  0  0  0
 20 27  1  0  0  0  0
 27 28  4  0  0  0  0
 28 29  4  0  0  0  0
 29 30  4  0  0  0  0
 30 31  4  0  0  0  0
 27 32  4  0  0  0  0
 31 32  4  0  0  0  0
  3 33  1  0  0  0  0
  3 34  1  0  0  0  0
  4 35  1  0  0  0  0
  4 36  1  0  0  0  0
  7 37  1  0  0  0  0
  8 38  1  0  0  0  0
  9 39  1  0  0  0  0
 10 40  1  0  0  0  0
 11 41  1  0  0  0  0
 13 42  1  0  0  0  0
 14 43  1  0  0  0  0
 15 44  1  0  0  0  0
 16 45  1  0  0  0  0
 17 46  1  0  0  0  0
 18 47  1  0  0  0  0
 18 48  1  0  0  0  0
 19 49  1  0  0  0  0
 19 50  1  0  0  0  0
 22 51  1  0  0  0  0
 23 52  1  0  0  0  0
 24 53  1  0  0  0  0
 25 54  1  0  0  0  0
 26 55  1  0  0  0  0
 28 56  1  0  0  0  0
 29 57  1  0  0  0  0
 30 58  1  0  0  0  0
 31 59  1  0  0  0  0
 32 60  1  0  0  0  0
  1 61  1  0  0  0  0
 61 62  2  0  0  0  0
 63 64  2  0  0  0  0
 64 65  1  0  0  0  0
 65 66  4  0  0  0  0
 66 67  4  0  0  0  0
 67 68  4  0  0  0  0
 68 69  4  0  0  0  0
 65 70  4  0  0  0  0
 69 70  4  0  0  0  0
  2 71  1  0  0  0  0
 64 72  1  0  0  0  0
  1 73  1  0  0  0  0
 66 74  1  0  0  0  0
 67 75  1  0  0  0  0
 68 76  1  0  0  0  0
 69 77  1  0  0  0  0
 70 78  1  0  0  0  0
M  END
