 xtb: 6.7.1 (edcfbbe)
          09202600123D

 20 21  0     0  0            999 V2000
   -3.2457    0.2350    0.2171 C   0  0  0  0  0  0  0  0  0  0  0  0
   -1.8488   -0.1307    0.1513 N   0  0  0  0  0  0  0  0  0  0  0  0
   -1.4517   -1.4226    0.0332 C   0  0  0  0  0  0  0  0  0  0  0  0
   -0.2450   -1.8360   -0.0317 N   0  0  0  0  0  0  0  0  0  0  0  0
    0.7557   -0.8980    0.0216 C   0  0  0  0  0  0  0  0  0  0  0  0
    2.0896   -1.3139   -0.0468 C   0  0  0  0  0  0  0  0  0  0  0  0
    3.1022   -0.3840    0.0056 C   0  0  0  0  0  0  0  0  0  0  0  0
    2.8153    0.9758    0.1265 C   0  0  0  0  0  0  0  0  0  0  0  0
    1.5092    1.4029    0.1951 C   0  0  0  0  0  0  0  0  0  0  0  0
    0.4677    0.4737    0.1436 C   0  0  0  0  0  0  0  0  0  0  0  0
   -0.9203    0.9147    0.2154 C   0  0  0  0  0  0  0  0  0  0  0  0
   -1.3001    2.0630    0.3210 O   0  0  0  0  0  0  0  0  0  0  0  0
   -3.4404    0.7640    1.1513 H   0  0  0  0  0  0  0  0  0  0  0  0
   -3.4846    0.9110   -0.6055 H   0  0  0  0  0  0  0  0  0  0  0  0
   -3.8645   -0.6568    0.1580 H   0  0  0  0  0  0  0  0  0  0  0  0
   -2.2423   -2.1622   -0.0087 H   0  0  0  0  0  0  0  0  0  0  0  0
    2.2930   -2.3688   -0.1401 H   0  0  0  0  0  0  0  0  0  0  0  0
    4.1313   -0.7077   -0.0474 H   0  0  0  0  0  0  0  0  0  0  0  0
    3.6221    1.6922    0.1662 H   0  0  0  0  0  0  0  0  0  0  0  0
    1.2574    2.4485    0.2890 H   0  0  0  0  0  0  0  0  0  0  0  0
  1  2  1  0  0  0  0
  2  3  1  0  0  0  0
  3  4  2  0  0  0  0
  4  5  1  0  0  0  0
  5  6  4  0  0  0  0
  6  7  4  0  0  0  0
  7  8  4  0  0  0  0
  8  9  4  0  0  0  0
  5 10  4  0  0  0  0
  9 10  4  0  0  0  0
  2 11  1  0  0  0  0
 10 11  1  0  0  0  0
 11 12  4  0  0  0  0
  1 13  1  0  0  0  0
  1 14  1  0  0  0  0
  1 15  1  0  0  0  0
  3 16  1  0  0  0  0
  6 17  1  0  0  0  0
  7 18  1  0  0  0  0
  8 19  1  0  0  0  0
  9 20  1  0  0  0  0
M  CHG  1   1  -1
M  END
