 xtb: 6.7.1 (edcfbbe)
          09132601403D

 74 74  0     0  0            999 V2000
    0.2388   -0.2145   -0.6498 Co  0  0  0  0  0  0  0  0  0  0  0  0
    0.2036   -2.2152   -0.7239 N   0  0  0  0  0  0  0  0  0  0  0  0
    1.3398   -2.9660   -0.1860 C   0  0  0  0  0  0  0  0  0  0  0  0
    2.6384   -2.3023   -0.6365 C   0  0  0  0  0  0  0  0  0  0  0  0
    2.4222   -0.4702   -0.4389 P   0  0  0  0  0  0  0  0  0  0  0  0
    3.6000    0.2718   -1.6807 C   0  0  0  0  0  0  0  0  0  0  0  0
    5.0735   -0.0812   -1.4783 C   0  0  0  0  0  0  0  0  0  0  0  0
    3.1501   -0.0868   -3.0957 C   0  0  0  0  0  0  0  0  0  0  0  0
    3.2666   -0.1183    1.1878 C   0  0  0  0  0  0  0  0  0  0  0  0
    2.6092   -0.9284    2.3018 C   0  0  0  0  0  0  0  0  0  0  0  0
    3.1645    1.3777    1.4706 C   0  0  0  0  0  0  0  0  0  0  0  0
   -1.0948   -2.8774   -0.5129 C   0  0  0  0  0  0  0  0  0  0  0  0
   -1.8992   -2.1712    0.5774 C   0  0  0  0  0  0  0  0  0  0  0  0
   -1.7975   -0.3566    0.2046 P   0  0  0  0  0  0  0  0  0  0  0  0
   -2.2158    0.4391    1.8419 C   0  0  0  0  0  0  0  0  0  0  0  0
   -2.4700    1.9317    1.6405 C   0  0  0  0  0  0  0  0  0  0  0  0
   -1.0528    0.2549    2.8114 C   0  0  0  0  0  0  0  0  0  0  0  0
   -3.3166    0.0086   -0.8197 C   0  0  0  0  0  0  0  0  0  0  0  0
   -4.6547   -0.2594   -0.1305 C   0  0  0  0  0  0  0  0  0  0  0  0
   -3.2526   -0.7281   -2.1551 C   0  0  0  0  0  0  0  0  0  0  0  0
    1.2632   -2.9759    0.9048 H   0  0  0  0  0  0  0  0  0  0  0  0
    1.3121   -4.0057   -0.5448 H   0  0  0  0  0  0  0  0  0  0  0  0
    3.4999   -2.6830   -0.0839 H   0  0  0  0  0  0  0  0  0  0  0  0
    2.7811   -2.4923   -1.7038 H   0  0  0  0  0  0  0  0  0  0  0  0
    3.4611    1.3545   -1.5564 H   0  0  0  0  0  0  0  0  0  0  0  0
    5.6477    0.2971   -2.3229 H   0  0  0  0  0  0  0  0  0  0  0  0
    5.2123   -1.1597   -1.4319 H   0  0  0  0  0  0  0  0  0  0  0  0
    5.4776    0.3685   -0.5752 H   0  0  0  0  0  0  0  0  0  0  0  0
    3.5750    0.6089   -3.8172 H   0  0  0  0  0  0  0  0  0  0  0  0
    3.4713   -1.0908   -3.3647 H   0  0  0  0  0  0  0  0  0  0  0  0
    2.0668   -0.0376   -3.1752 H   0  0  0  0  0  0  0  0  0  0  0  0
    4.3181   -0.4110    1.1061 H   0  0  0  0  0  0  0  0  0  0  0  0
    2.9162   -0.5465    3.2739 H   0  0  0  0  0  0  0  0  0  0  0  0
    2.8955   -1.9762    2.2479 H   0  0  0  0  0  0  0  0  0  0  0  0
    1.5260   -0.8486    2.2284 H   0  0  0  0  0  0  0  0  0  0  0  0
    2.1190    1.6865    1.4614 H   0  0  0  0  0  0  0  0  0  0  0  0
    3.5888    1.6127    2.4454 H   0  0  0  0  0  0  0  0  0  0  0  0
    3.6949    1.9593    0.7190 H   0  0  0  0  0  0  0  0  0  0  0  0
   -0.9431   -3.9328   -0.2548 H   0  0  0  0  0  0  0  0  0  0  0  0
   -1.6534   -2.8323   -1.4488 H   0  0  0  0  0  0  0  0  0  0  0  0
   -1.4420   -2.3453    1.5544 H   0  0  0  0  0  0  0  0  0  0  0  0
   -2.9280   -2.5353    0.6031 H   0  0  0  0  0  0  0  0  0  0  0  0
   -3.1084   -0.0510    2.2463 H   0  0  0  0  0  0  0  0  0  0  0  0
   -3.3714    2.1221    1.0637 H   0  0  0  0  0  0  0  0  0  0  0  0
   -2.5749    2.4276    2.6045 H   0  0  0  0  0  0  0  0  0  0  0  0
   -1.6275    2.3815    1.1145 H   0  0  0  0  0  0  0  0  0  0  0  0
   -1.2702    0.7489    3.7569 H   0  0  0  0  0  0  0  0  0  0  0  0
   -0.8616   -0.7955    3.0180 H   0  0  0  0  0  0  0  0  0  0  0  0
   -0.1561    0.7034    2.3851 H   0  0  0  0  0  0  0  0  0  0  0  0
   -3.2224    1.0812   -1.0353 H   0  0  0  0  0  0  0  0  0  0  0  0
   -4.7495   -1.3056    0.1532 H   0  0  0  0  0  0  0  0  0  0  0  0
   -4.7954    0.3556    0.7539 H   0  0  0  0  0  0  0  0  0  0  0  0
   -5.4591   -0.0316   -0.8287 H   0  0  0  0  0  0  0  0  0  0  0  0
   -2.2583   -0.6509   -2.5862 H   0  0  0  0  0  0  0  0  0  0  0  0
   -3.5127   -1.7787   -2.0370 H   0  0  0  0  0  0  0  0  0  0  0  0
   -3.9502   -0.2903   -2.8669 H   0  0  0  0  0  0  0  0  0  0  0  0
    0.2768    1.4949   -0.8238 C   0  0  0  0  0  0  0  0  0  0  0  0
    0.2936    2.6056   -1.1398 O   0  0  0  0  0  0  0  0  0  0  0  0
   -2.1476   -1.1227   -5.4131 O   0  0  0  0  0  0  0  0  0  0  0  0
   -0.9458   -1.2401   -5.3974 C   0  0  0  0  0  0  0  0  0  0  0  0
   -0.2078   -2.3633   -4.8152 C   0  0  0  0  0  0  0  0  0  0  0  0
   -0.8907   -3.3469   -4.1014 C   0  0  0  0  0  0  0  0  0  0  0  0
   -0.1920   -4.3530   -3.4629 C   0  0  0  0  0  0  0  0  0  0  0  0
    1.1926   -4.3893   -3.5399 C   0  0  0  0  0  0  0  0  0  0  0  0
    1.8761   -3.4226   -4.2624 C   0  0  0  0  0  0  0  0  0  0  0  0
    1.1812   -2.4120   -4.8989 C   0  0  0  0  0  0  0  0  0  0  0  0
    0.3508   -2.1496   -1.7316 H   0  0  0  0  0  0  0  0  0  0  0  0
   -0.0682   -0.4737   -2.8217 H   0  0  0  0  0  0  0  0  0  0  0  0
   -0.2944   -0.4577   -5.8360 H   0  0  0  0  0  0  0  0  0  0  0  0
   -1.9683   -3.2838   -4.0491 H   0  0  0  0  0  0  0  0  0  0  0  0
   -0.7230   -5.1105   -2.9040 H   0  0  0  0  0  0  0  0  0  0  0  0
    1.7414   -5.1745   -3.0390 H   0  0  0  0  0  0  0  0  0  0  0  0
    2.9546   -3.4608   -4.3275 H   0  0  0  0  0  0  0  0  0  0  0  0
    1.7059   -1.6415   -5.4448 H   0  0  0  0  0  0  0  0  0  0  0  0
  1  2  1  0  0  0  0
  2  3  1  0  0  0  0
  3  4  1  0  0  0  0
  1  5  1  0  0  0  0
  4  5  1  0  0  0  0
  5  6  1  0  0  0  0
  6  7  1  0  0  0  0
  6  8  1  0  0  0  0
  5  9  1  0  0  0  0
  9 10  1  0  0  0  0
  9 11  1  0  0  0  0
  2 12  1  0  0  0  0
 12 13  1  0  0  0  0
  1 14  1  0  0  0  0
 13 14  1  0  0  0  0
 14 15  1  0  0  0  0
 15 16  1  0  0  0  0
 15 17  1  0  0  0  0
 14 18  1  0  0  0  0
 18 19  1  0  0  0  0
 18 20  1  0  0  0  0
  3 21  1  0  0  0  0
  3 22  1  0  0  0  0
  4 23  1  0  0  0  0
  4 24  1  0  0  0  0
  6 25  1  0  0  0  0
  7 26  1  0  0  0  0
  7 27  1  0  0  0  0
  7 28  1  0  0  0  0
  8 29  1  0  0  0  0
  8 30  1  0  0  0  0
  8 31  1  0  0  0  0
  9 32  1  0  0  0  0
 10 33  1  0  0  0  0
 10 34  1  0  0  0  0
 10 35  1  0  0  0  0
 11 36  1  0  0  0  0
 11 37  1  0  0  0  0
 11 38  1  0  0  0  0
 12 39  1  0  0  0  0
 12 40  1  0  0  0  0
 13 41  1  0  0  0  0
 13 42  1  0  0  0  0
 15 43  1  0  0  0  0
 16 44  1  0  0  0  0
 16 45  1  0  0  0  0
 16 46  1  0  0  0  0
 17 47  1  0  0  0  0
 17 48  1  0  0  0  0
 17 49  1  0  0  0  0
 18 50  1  0  0  0  0
 19 51  1  0  0  0  0
 19 52  1  0  0  0  0
 19 53  1  0  0  0  0
 20 54  1  0  0  0  0
 20 55  1  0  0  0  0
 20 56  1  0  0  0  0
  1 57  2  0  0  0  0
 57 58  2  0  0  0  0
 59 60  2  0  0  0  0
 60 61  1  0  0  0  0
 61 62  4  0  0  0  0
 62 63  4  0  0  0  0
 63 64  4  0  0  0  0
 64 65  4  0  0  0  0
 61 66  4  0  0  0  0
 65 66  4  0  0  0  0
  2 67  1  0  0  0  0
 60 69  1  0  0  0  0
 62 70  1  0  0  0  0
 63 71  1  0  0  0  0
 64 72  1  0  0  0  0
 65 73  1  0  0  0  0
 66 74  1  0  0  0  0
M  END
