 xtb: 6.7.1 (edcfbbe)
          09132601183D

 75 77  0     0  0            999 V2000
   -0.0412    0.0751    0.2921 Ru  0  0  0  0  0  0  0  0  0  0  0  0
   -0.2230   -2.1375    0.4079 N   0  0  0  0  0  0  0  0  0  0  0  0
    0.9931   -2.9015    0.2106 C   0  0  0  0  0  0  0  0  0  0  0  0
    2.0608   -2.1890   -0.6297 C   0  0  0  0  0  0  0  0  0  0  0  0
    2.1765   -0.3995   -0.1577 P   0  0  0  0  0  0  0  0  0  0  0  0
    3.1400    0.3273   -1.5944 C   0  0  0  0  0  0  0  0  0  0  0  0
    4.2012   -0.6052   -2.1764 C   0  0  0  0  0  0  0  0  0  0  0  0
    2.2053    0.8181   -2.6942 C   0  0  0  0  0  0  0  0  0  0  0  0
    3.5275   -0.3019    1.1393 C   0  0  0  0  0  0  0  0  0  0  0  0
    3.3010   -1.2662    2.2978 C   0  0  0  0  0  0  0  0  0  0  0  0
    3.5798    1.1323    1.6622 C   0  0  0  0  0  0  0  0  0  0  0  0
   -0.4786   -1.7167    1.6169 C   0  0  0  0  0  0  0  0  0  0  0  0
   -1.9115   -1.3982    2.0247 C   0  0  0  0  0  0  0  0  0  0  0  0
   -2.2577    0.0740    0.9660 P   0  0  0  0  0  0  0  0  0  0  0  0
   -3.0427    1.3653    2.0599 C   0  0  0  0  0  0  0  0  0  0  0  0
   -3.3058    2.5777    1.1666 C   0  0  0  0  0  0  0  0  0  0  0  0
   -2.1230    1.7620    3.2086 C   0  0  0  0  0  0  0  0  0  0  0  0
   -3.6740   -0.4747   -0.1391 C   0  0  0  0  0  0  0  0  0  0  0  0
   -5.0425   -0.4970    0.5402 C   0  0  0  0  0  0  0  0  0  0  0  0
   -3.3714   -1.8539   -0.7346 C   0  0  0  0  0  0  0  0  0  0  0  0
    1.4238   -3.1921    1.1837 H   0  0  0  0  0  0  0  0  0  0  0  0
    0.6932   -3.8174   -0.3168 H   0  0  0  0  0  0  0  0  0  0  0  0
    3.0217   -2.7036   -0.5434 H   0  0  0  0  0  0  0  0  0  0  0  0
    1.7497   -2.1992   -1.6801 H   0  0  0  0  0  0  0  0  0  0  0  0
    3.6389    1.2064   -1.1669 H   0  0  0  0  0  0  0  0  0  0  0  0
    4.8236   -0.0473   -2.8750 H   0  0  0  0  0  0  0  0  0  0  0  0
    3.7397   -1.4233   -2.7241 H   0  0  0  0  0  0  0  0  0  0  0  0
    4.8500   -1.0201   -1.4081 H   0  0  0  0  0  0  0  0  0  0  0  0
    2.7667    1.3689   -3.4481 H   0  0  0  0  0  0  0  0  0  0  0  0
    1.7141   -0.0175   -3.1897 H   0  0  0  0  0  0  0  0  0  0  0  0
    1.4438    1.4770   -2.2733 H   0  0  0  0  0  0  0  0  0  0  0  0
    4.4782   -0.5496    0.6503 H   0  0  0  0  0  0  0  0  0  0  0  0
    4.0653   -1.1169    3.0603 H   0  0  0  0  0  0  0  0  0  0  0  0
    3.3498   -2.3037    1.9716 H   0  0  0  0  0  0  0  0  0  0  0  0
    2.3296   -1.0755    2.7526 H   0  0  0  0  0  0  0  0  0  0  0  0
    2.6057    1.4081    2.0648 H   0  0  0  0  0  0  0  0  0  0  0  0
    4.3265    1.2231    2.4499 H   0  0  0  0  0  0  0  0  0  0  0  0
    3.8275    1.8400    0.8737 H   0  0  0  0  0  0  0  0  0  0  0  0
    0.3133    0.4794    1.7593 H   0  0  0  0  0  0  0  0  0  0  0  0
    0.1793   -2.0215    2.4505 H   0  0  0  0  0  0  0  0  0  0  0  0
   -1.9533   -1.1372    3.0842 H   0  0  0  0  0  0  0  0  0  0  0  0
   -2.5690   -2.2516    1.8369 H   0  0  0  0  0  0  0  0  0  0  0  0
   -3.9788    0.9675    2.4685 H   0  0  0  0  0  0  0  0  0  0  0  0
   -4.0252    2.3538    0.3807 H   0  0  0  0  0  0  0  0  0  0  0  0
   -3.6864    3.4125    1.7531 H   0  0  0  0  0  0  0  0  0  0  0  0
   -2.3679    2.8801    0.6962 H   0  0  0  0  0  0  0  0  0  0  0  0
   -2.5702    2.5787    3.7739 H   0  0  0  0  0  0  0  0  0  0  0  0
   -1.9484    0.9343    3.8934 H   0  0  0  0  0  0  0  0  0  0  0  0
   -1.1639    2.0943    2.8140 H   0  0  0  0  0  0  0  0  0  0  0  0
   -3.6827    0.2633   -0.9532 H   0  0  0  0  0  0  0  0  0  0  0  0
   -5.0066   -1.0810    1.4592 H   0  0  0  0  0  0  0  0  0  0  0  0
   -5.4044    0.5014    0.7714 H   0  0  0  0  0  0  0  0  0  0  0  0
   -5.7641   -0.9646   -0.1292 H   0  0  0  0  0  0  0  0  0  0  0  0
   -2.3002   -2.0263   -0.8325 H   0  0  0  0  0  0  0  0  0  0  0  0
   -3.7756   -2.6421   -0.1014 H   0  0  0  0  0  0  0  0  0  0  0  0
   -3.8277   -1.9518   -1.7183 H   0  0  0  0  0  0  0  0  0  0  0  0
   -0.5012   -0.2322   -1.4565 C   0  0  0  0  0  0  0  0  0  0  0  0
   -0.8390   -0.5306   -2.5263 O   0  0  0  0  0  0  0  0  0  0  0  0
    0.0987    1.5953    0.0173 H   0  0  0  0  0  0  0  0  0  0  0  0
   -0.4971   -3.4762   -2.7450 O   0  0  0  0  0  0  0  0  0  0  0  0
   -0.3804   -3.6561   -4.1429 C   0  0  0  0  0  0  0  0  0  0  0  0
    0.7594   -2.8550   -4.7231 C   0  0  0  0  0  0  0  0  0  0  0  0
    2.0681   -3.3019   -4.5825 C   0  0  0  0  0  0  0  0  0  0  0  0
    3.1217   -2.5578   -5.0842 C   0  0  0  0  0  0  0  0  0  0  0  0
    2.8778   -1.3537   -5.7250 C   0  0  0  0  0  0  0  0  0  0  0  0
    1.5780   -0.8957   -5.8575 C   0  0  0  0  0  0  0  0  0  0  0  0
    0.5240   -1.6418   -5.3569 C   0  0  0  0  0  0  0  0  0  0  0  0
   -0.6377   -2.5319   -2.5841 H   0  0  0  0  0  0  0  0  0  0  0  0
   -1.3232   -3.3841   -4.6399 H   0  0  0  0  0  0  0  0  0  0  0  0
   -0.2067   -4.7270   -4.2854 H   0  0  0  0  0  0  0  0  0  0  0  0
    2.2550   -4.2397   -4.0779 H   0  0  0  0  0  0  0  0  0  0  0  0
    4.1349   -2.9191   -4.9782 H   0  0  0  0  0  0  0  0  0  0  0  0
    3.6998   -0.7731   -6.1172 H   0  0  0  0  0  0  0  0  0  0  0  0
    1.3825    0.0463   -6.3489 H   0  0  0  0  0  0  0  0  0  0  0  0
   -0.4892   -1.2792   -5.4595 H   0  0  0  0  0  0  0  0  0  0  0  0
  1  2  1  0  0  0  0
  2  3  1  0  0  0  0
  3  4  1  0  0  0  0
  1  5  1  0  0  0  0
  4  5  1  0  0  0  0
  5  6  1  0  0  0  0
  6  7  1  0  0  0  0
  6  8  1  0  0  0  0
  5  9  1  0  0  0  0
  9 10  1  0  0  0  0
  9 11  1  0  0  0  0
  1 12  1  0  0  0  0
  2 12  2  0  0  0  0
 12 13  1  0  0  0  0
  1 14  1  0  0  0  0
 13 14  1  0  0  0  0
 14 15  1  0  0  0  0
 15 16  1  0  0  0  0
 15 17  1  0  0  0  0
 14 18  1  0  0  0  0
 18 19  1  0  0  0  0
 18 20  1  0  0  0  0
  3 21  1  0  0  0  0
  3 22  1  0  0  0  0
  4 23  1  0  0  0  0
  4 24  1  0  0  0  0
  6 25  1  0  0  0  0
  7 26  1  0  0  0  0
  7 27  1  0  0  0  0
  7 28  1  0  0  0  0
  8 29  1  0  0  0  0
  8 30  1  0  0  0  0
  8 31  1  0  0  0  0
  9 32  1  0  0  0  0
 10 33  1  0  0  0  0
 10 34  1  0  0  0  0
 10 35  1  0  0  0  0
 11 36  1  0  0  0  0
 11 37  1  0  0  0  0
 11 38  1  0  0  0  0
  1 39  1  0  0  0  0
 12 40  1  0  0  0  0
 13 41  1  0  0  0  0
 13 42  1  0  0  0  0
 15 43  1  0  0  0  0
 16 44  1  0  0  0  0
 16 45  1  0  0  0  0
 16 46  1  0  0  0  0
 17 47  1  0  0  0  0
 17 48  1  0  0  0  0
 17 49  1  0  0  0  0
 18 50  1  0  0  0  0
 19 51  1  0  0  0  0
 19 52  1  0  0  0  0
 19 53  1  0  0  0  0
 20 54  1  0  0  0  0
 20 55  1  0  0  0  0
 20 56  1  0  0  0  0
  1 57  2  0  0  0  0
 57 58  2  0  0  0  0
  1 59  1  0  0  0  0
 60 61  1  0  0  0  0
 61 62  1  0  0  0  0
 62 63  4  0  0  0  0
 63 64  4  0  0  0  0
 64 65  4  0  0  0  0
 65 66  4  0  0  0  0
 62 67  4  0  0  0  0
 66 67  4  0  0  0  0
 60 68  1  0  0  0  0
 61 69  1  0  0  0  0
 61 70  1  0  0  0  0
 63 71  1  0  0  0  0
 64 72  1  0  0  0  0
 65 73  1  0  0  0  0
 66 74  1  0  0  0  0
 67 75  1  0  0  0  0
M  END
