 xtb: 6.7.1 (edcfbbe)
          09132601213D

 80 87  0     0  0            999 V2000
    0.2622   -0.3023   -0.6338 Mn  0  0  0  0  0  0  0  0  0  0  0  0
    0.5761   -2.5383   -0.8987 N   0  0  0  0  0  0  0  0  0  0  0  0
    1.7667   -2.9756   -0.1659 C   0  0  0  0  0  0  0  0  0  0  0  0
    2.9571   -2.1483   -0.6433 C   0  0  0  0  0  0  0  0  0  0  0  0
    2.4695   -0.3591   -0.5391 P   0  0  0  0  0  0  0  0  0  0  0  0
    3.2281    0.2273    1.0157 C   0  0  0  0  0  0  0  0  0  0  0  0
    3.6085   -0.5871    2.0752 C   0  0  0  0  0  0  0  0  0  0  0  0
    4.0997   -0.0234    3.2408 C   0  0  0  0  0  0  0  0  0  0  0  0
    4.2031    1.3514    3.3634 C   0  0  0  0  0  0  0  0  0  0  0  0
    3.8034    2.1707    2.3182 C   0  0  0  0  0  0  0  0  0  0  0  0
    3.3142    1.6123    1.1541 C   0  0  0  0  0  0  0  0  0  0  0  0
    3.6456    0.4282   -1.6942 C   0  0  0  0  0  0  0  0  0  0  0  0
    3.1671    1.4294   -2.5312 C   0  0  0  0  0  0  0  0  0  0  0  0
    4.0348    2.0990   -3.3773 C   0  0  0  0  0  0  0  0  0  0  0  0
    5.3787    1.7628   -3.3969 C   0  0  0  0  0  0  0  0  0  0  0  0
    5.8585    0.7650   -2.5616 C   0  0  0  0  0  0  0  0  0  0  0  0
    4.9992    0.1037   -1.7034 C   0  0  0  0  0  0  0  0  0  0  0  0
   -0.6069   -3.3865   -0.6768 C   0  0  0  0  0  0  0  0  0  0  0  0
   -1.5779   -2.7218    0.2965 C   0  0  0  0  0  0  0  0  0  0  0  0
   -1.8117   -1.0120   -0.3771 P   0  0  0  0  0  0  0  0  0  0  0  0
   -2.8771   -0.1740    0.8342 C   0  0  0  0  0  0  0  0  0  0  0  0
   -3.2743   -0.6891    2.0616 C   0  0  0  0  0  0  0  0  0  0  0  0
   -4.0631    0.0760    2.9052 C   0  0  0  0  0  0  0  0  0  0  0  0
   -4.4573    1.3496    2.5322 C   0  0  0  0  0  0  0  0  0  0  0  0
   -4.0606    1.8692    1.3087 C   0  0  0  0  0  0  0  0  0  0  0  0
   -3.2724    1.1116    0.4654 C   0  0  0  0  0  0  0  0  0  0  0  0
   -3.0730   -1.3560   -1.6667 C   0  0  0  0  0  0  0  0  0  0  0  0
   -2.7750   -1.1091   -3.0006 C   0  0  0  0  0  0  0  0  0  0  0  0
   -3.7121   -1.3767   -3.9842 C   0  0  0  0  0  0  0  0  0  0  0  0
   -4.9504   -1.8914   -3.6391 C   0  0  0  0  0  0  0  0  0  0  0  0
   -5.2561   -2.1303   -2.3072 C   0  0  0  0  0  0  0  0  0  0  0  0
   -4.3247   -1.8611   -1.3222 C   0  0  0  0  0  0  0  0  0  0  0  0
    1.9589   -4.0458   -0.3434 H   0  0  0  0  0  0  0  0  0  0  0  0
    1.6027   -2.8277    0.9092 H   0  0  0  0  0  0  0  0  0  0  0  0
    3.1470   -2.3619   -1.7023 H   0  0  0  0  0  0  0  0  0  0  0  0
    3.8630   -2.3658   -0.0730 H   0  0  0  0  0  0  0  0  0  0  0  0
    3.5192   -1.6631    2.0086 H   0  0  0  0  0  0  0  0  0  0  0  0
    4.3964   -0.6630    4.0605 H   0  0  0  0  0  0  0  0  0  0  0  0
    4.5843    1.7854    4.2766 H   0  0  0  0  0  0  0  0  0  0  0  0
    3.8670    3.2451    2.4168 H   0  0  0  0  0  0  0  0  0  0  0  0
    2.9795    2.2416    0.3367 H   0  0  0  0  0  0  0  0  0  0  0  0
    2.1074    1.6617   -2.5028 H   0  0  0  0  0  0  0  0  0  0  0  0
    3.6642    2.8871   -4.0179 H   0  0  0  0  0  0  0  0  0  0  0  0
    6.0568    2.2816   -4.0593 H   0  0  0  0  0  0  0  0  0  0  0  0
    6.9084    0.5090   -2.5746 H   0  0  0  0  0  0  0  0  0  0  0  0
    5.3786   -0.6583   -1.0360 H   0  0  0  0  0  0  0  0  0  0  0  0
   -1.1215   -3.5184   -1.6362 H   0  0  0  0  0  0  0  0  0  0  0  0
   -0.3054   -4.3780   -0.3132 H   0  0  0  0  0  0  0  0  0  0  0  0
   -2.5203   -3.2736    0.3567 H   0  0  0  0  0  0  0  0  0  0  0  0
   -1.1335   -2.6463    1.2945 H   0  0  0  0  0  0  0  0  0  0  0  0
   -2.9713   -1.6798    2.3707 H   0  0  0  0  0  0  0  0  0  0  0  0
   -4.3684   -0.3256    3.8615 H   0  0  0  0  0  0  0  0  0  0  0  0
   -5.0695    1.9409    3.1979 H   0  0  0  0  0  0  0  0  0  0  0  0
   -4.3614    2.8659    1.0193 H   0  0  0  0  0  0  0  0  0  0  0  0
   -2.9362    1.5024   -0.4900 H   0  0  0  0  0  0  0  0  0  0  0  0
   -1.8061   -0.6952   -3.2508 H   0  0  0  0  0  0  0  0  0  0  0  0
   -3.4776   -1.1740   -5.0195 H   0  0  0  0  0  0  0  0  0  0  0  0
   -5.6837   -2.1001   -4.4048 H   0  0  0  0  0  0  0  0  0  0  0  0
   -6.2265   -2.5226   -2.0375 H   0  0  0  0  0  0  0  0  0  0  0  0
   -4.5703   -2.0302   -0.2814 H   0  0  0  0  0  0  0  0  0  0  0  0
    0.0288    1.4271   -0.3954 C   0  0  0  0  0  0  0  0  0  0  0  0
   -0.1194    2.5517   -0.1127 O   0  0  0  0  0  0  0  0  0  0  0  0
    0.2524   -0.3179    1.1137 C   0  0  0  0  0  0  0  0  0  0  0  0
    0.2147   -0.1768    2.2682 O   0  0  0  0  0  0  0  0  0  0  0  0
    0.7188   -3.4309   -3.6351 O   0  0  0  0  0  0  0  0  0  0  0  0
    0.0416   -2.9635   -4.5280 C   0  0  0  0  0  0  0  0  0  0  0  0
    0.3085   -1.7242   -5.2429 C   0  0  0  0  0  0  0  0  0  0  0  0
    1.4151   -0.9354   -4.9142 C   0  0  0  0  0  0  0  0  0  0  0  0
    1.6541    0.2398   -5.5976 C   0  0  0  0  0  0  0  0  0  0  0  0
    0.7922    0.6421   -6.6071 C   0  0  0  0  0  0  0  0  0  0  0  0
   -0.3099   -0.1338   -6.9403 C   0  0  0  0  0  0  0  0  0  0  0  0
   -0.5520   -1.3126   -6.2647 C   0  0  0  0  0  0  0  0  0  0  0  0
    0.8195   -2.6343   -1.8920 H   0  0  0  0  0  0  0  0  0  0  0  0
    0.2301   -0.1867   -2.1554 H   0  0  0  0  0  0  0  0  0  0  0  0
   -0.8728   -3.4935   -4.8615 H   0  0  0  0  0  0  0  0  0  0  0  0
    2.0724   -1.2518   -4.1174 H   0  0  0  0  0  0  0  0  0  0  0  0
    2.5103    0.8439   -5.3391 H   0  0  0  0  0  0  0  0  0  0  0  0
    0.9779    1.5647   -7.1373 H   0  0  0  0  0  0  0  0  0  0  0  0
   -0.9770    0.1860   -7.7275 H   0  0  0  0  0  0  0  0  0  0  0  0
   -1.4045   -1.9267   -6.5201 H   0  0  0  0  0  0  0  0  0  0  0  0
  1  2  1  0  0  0  0
  2  3  1  0  0  0  0
  3  4  1  0  0  0  0
  1  5  1  0  0  0  0
  4  5  1  0  0  0  0
  5  6  1  0  0  0  0
  6  7  4  0  0  0  0
  7  8  4  0  0  0  0
  8  9  4  0  0  0  0
  9 10  4  0  0  0  0
  6 11  4  0  0  0  0
 10 11  4  0  0  0  0
  5 12  1  0  0  0  0
 12 13  4  0  0  0  0
 13 14  4  0  0  0  0
 14 15  4  0  0  0  0
 15 16  4  0  0  0  0
 12 17  4  0  0  0  0
 16 17  4  0  0  0  0
  2 18  1  0  0  0  0
 18 19  1  0  0  0  0
  1 20  1  0  0  0  0
 19 20  1  0  0  0  0
 20 21  1  0  0  0  0
 21 22  4  0  0  0  0
 22 23  4  0  0  0  0
 23 24  4  0  0  0  0
 24 25  4  0  0  0  0
 21 26  4  0  0  0  0
 25 26  4  0  0  0  0
 20 27  1  0  0  0  0
 27 28  4  0  0  0  0
 28 29  4  0  0  0  0
 29 30  4  0  0  0  0
 30 31  4  0  0  0  0
 27 32  4  0  0  0  0
 31 32  4  0  0  0  0
  3 33  1  0  0  0  0
  3 34  1  0  0  0  0
  4 35  1  0  0  0  0
  4 36  1  0  0  0  0
  7 37  1  0  0  0  0
  8 38  1  0  0  0  0
  9 39  1  0  0  0  0
 10 40  1  0  0  0  0
 11 41  1  0  0  0  0
 13 42  1  0  0  0  0
 14 43  1  0  0  0  0
 15 44  1  0  0  0  0
 16 45  1  0  0  0  0
 17 46  1  0  0  0  0
 18 47  1  0  0  0  0
 18 48  1  0  0  0  0
 19 49  1  0  0  0  0
 19 50  1  0  0  0  0
 22 51  1  0  0  0  0
 23 52  1  0  0  0  0
 24 53  1  0  0  0  0
 25 54  1  0  0  0  0
 26 55  1  0  0  0  0
 28 56  1  0  0  0  0
 29 57  1  0  0  0  0
 30 58  1  0  0  0  0
 31 59  1  0  0  0  0
 32 60  1  0  0  0  0
  1 61  2  0  0  0  0
  1 62  1  0  0  0  0
 61 62  2  0  0  0  0
  1 63  1  0  0  0  0
  1 64  1  0  0  0  0
 63 64  2  0  0  0  0
 65 66  2  0  0  0  0
 66 67  1  0  0  0  0
 67 68  4  0  0  0  0
 68 69  4  0  0  0  0
 69 70  4  0  0  0  0
 70 71  4  0  0  0  0
 67 72  4  0  0  0  0
 71 72  4  0  0  0  0
  2 73  1  0  0  0  0
  1 74  1  0  0  0  0
 66 75  1  0  0  0  0
 68 76  1  0  0  0  0
 69 77  1  0  0  0  0
 70 78  1  0  0  0  0
 71 79  1  0  0  0  0
 72 80  1  0  0  0  0
M  END
