 xtb: 6.7.1 (edcfbbe)
          09132602013D

 79 85  0     0  0            999 V2000
    0.3438    0.1637   -0.2761 Ru  0  0  0  0  0  0  0  0  0  0  0  0
   -0.1534   -1.7661    0.5857 N   0  0  0  0  0  0  0  0  0  0  0  0
    0.9557   -2.7038    0.5057 C   0  0  0  0  0  0  0  0  0  0  0  0
    2.3653   -2.0721    0.6095 C   0  0  0  0  0  0  0  0  0  0  0  0
    2.3922   -0.7049   -0.6318 P   0  0  0  0  0  0  0  0  0  0  0  0
    2.9404   -1.5909   -2.1349 C   0  0  0  0  0  0  0  0  0  0  0  0
    4.2576   -1.5860   -2.5820 C   0  0  0  0  0  0  0  0  0  0  0  0
    4.6080   -2.3033   -3.7129 C   0  0  0  0  0  0  0  0  0  0  0  0
    3.6516   -3.0285   -4.4044 C   0  0  0  0  0  0  0  0  0  0  0  0
    2.3362   -3.0285   -3.9679 C   0  0  0  0  0  0  0  0  0  0  0  0
    1.9789   -2.3080   -2.8429 C   0  0  0  0  0  0  0  0  0  0  0  0
    3.8136    0.3438   -0.2155 C   0  0  0  0  0  0  0  0  0  0  0  0
    4.9949   -0.0811    0.3806 C   0  0  0  0  0  0  0  0  0  0  0  0
    5.9923    0.8401    0.6533 C   0  0  0  0  0  0  0  0  0  0  0  0
    5.8169    2.1771    0.3328 C   0  0  0  0  0  0  0  0  0  0  0  0
    4.6360    2.6068   -0.2544 C   0  0  0  0  0  0  0  0  0  0  0  0
    3.6377    1.6902   -0.5222 C   0  0  0  0  0  0  0  0  0  0  0  0
   -0.5482   -1.5123    1.9610 C   0  0  0  0  0  0  0  0  0  0  0  0
   -1.7851   -0.6021    2.0341 C   0  0  0  0  0  0  0  0  0  0  0  0
   -1.5916    0.7028    0.7412 P   0  0  0  0  0  0  0  0  0  0  0  0
   -1.4442    2.3599    1.4845 C   0  0  0  0  0  0  0  0  0  0  0  0
   -0.5723    3.1892    0.7818 C   0  0  0  0  0  0  0  0  0  0  0  0
   -0.3809    4.4990    1.1742 C   0  0  0  0  0  0  0  0  0  0  0  0
   -1.0638    4.9845    2.2805 C   0  0  0  0  0  0  0  0  0  0  0  0
   -1.9337    4.1646    2.9811 C   0  0  0  0  0  0  0  0  0  0  0  0
   -2.1352    2.8536    2.5816 C   0  0  0  0  0  0  0  0  0  0  0  0
   -3.2918    0.9006    0.0942 C   0  0  0  0  0  0  0  0  0  0  0  0
   -3.4404    1.3072   -1.2265 C   0  0  0  0  0  0  0  0  0  0  0  0
   -4.6980    1.5485   -1.7492 C   0  0  0  0  0  0  0  0  0  0  0  0
   -5.8174    1.3983   -0.9474 C   0  0  0  0  0  0  0  0  0  0  0  0
   -5.6748    1.0085    0.3744 C   0  0  0  0  0  0  0  0  0  0  0  0
   -4.4187    0.7606    0.8967 C   0  0  0  0  0  0  0  0  0  0  0  0
    0.8903   -3.2242   -0.4580 H   0  0  0  0  0  0  0  0  0  0  0  0
    0.8527   -3.4600    1.2968 H   0  0  0  0  0  0  0  0  0  0  0  0
    3.1353   -2.8251    0.4175 H   0  0  0  0  0  0  0  0  0  0  0  0
    2.5210   -1.6197    1.5939 H   0  0  0  0  0  0  0  0  0  0  0  0
    5.0107   -1.0182   -2.0536 H   0  0  0  0  0  0  0  0  0  0  0  0
    5.6330   -2.2943   -4.0560 H   0  0  0  0  0  0  0  0  0  0  0  0
    3.9299   -3.5872   -5.2865 H   0  0  0  0  0  0  0  0  0  0  0  0
    1.5836   -3.5854   -4.5074 H   0  0  0  0  0  0  0  0  0  0  0  0
    0.9473   -2.2936   -2.5144 H   0  0  0  0  0  0  0  0  0  0  0  0
    5.1296   -1.1247    0.6310 H   0  0  0  0  0  0  0  0  0  0  0  0
    6.9116    0.5146    1.1192 H   0  0  0  0  0  0  0  0  0  0  0  0
    6.6003    2.8894    0.5484 H   0  0  0  0  0  0  0  0  0  0  0  0
    4.4987    3.6518   -0.4941 H   0  0  0  0  0  0  0  0  0  0  0  0
    2.6860    1.9998   -0.9643 H   0  0  0  0  0  0  0  0  0  0  0  0
    0.2716   -1.0615    2.5488 H   0  0  0  0  0  0  0  0  0  0  0  0
   -0.7980   -2.4756    2.4327 H   0  0  0  0  0  0  0  0  0  0  0  0
   -2.6775   -1.1835    1.7822 H   0  0  0  0  0  0  0  0  0  0  0  0
   -1.8906   -0.1748    3.0350 H   0  0  0  0  0  0  0  0  0  0  0  0
   -0.0283    2.7661   -0.0804 H   0  0  0  0  0  0  0  0  0  0  0  0
    0.2975    5.1419    0.6312 H   0  0  0  0  0  0  0  0  0  0  0  0
   -0.9136    6.0063    2.5977 H   0  0  0  0  0  0  0  0  0  0  0  0
   -2.4600    4.5505    3.8424 H   0  0  0  0  0  0  0  0  0  0  0  0
   -2.8213    2.2182    3.1239 H   0  0  0  0  0  0  0  0  0  0  0  0
   -2.5580    1.4306   -1.8436 H   0  0  0  0  0  0  0  0  0  0  0  0
   -4.8053    1.8556   -2.7801 H   0  0  0  0  0  0  0  0  0  0  0  0
   -6.8010    1.5871   -1.3528 H   0  0  0  0  0  0  0  0  0  0  0  0
   -6.5473    0.8981    1.0020 H   0  0  0  0  0  0  0  0  0  0  0  0
   -4.3193    0.4549    1.9281 H   0  0  0  0  0  0  0  0  0  0  0  0
   -0.2671   -0.0539   -2.0011 C   0  0  0  0  0  0  0  0  0  0  0  0
   -0.5394    0.0837   -3.1194 O   0  0  0  0  0  0  0  0  0  0  0  0
    0.9901    0.6415    1.0789 H   0  0  0  0  0  0  0  0  0  0  0  0
   -1.4621   -2.7982   -1.7201 O   0  0  0  0  0  0  0  0  0  0  0  0
   -2.7659   -2.3901   -2.0275 C   0  0  0  0  0  0  0  0  0  0  0  0
   -3.7676   -2.5530   -0.9103 C   0  0  0  0  0  0  0  0  0  0  0  0
   -3.4363   -3.1946    0.2743 C   0  0  0  0  0  0  0  0  0  0  0  0
   -4.3764   -3.3296    1.2835 C   0  0  0  0  0  0  0  0  0  0  0  0
   -5.6569   -2.8332    1.1145 C   0  0  0  0  0  0  0  0  0  0  0  0
   -5.9969   -2.2034   -0.0723 C   0  0  0  0  0  0  0  0  0  0  0  0
   -5.0575   -2.0623   -1.0761 C   0  0  0  0  0  0  0  0  0  0  0  0
   -1.1577   -2.2958   -0.9305 H   0  0  0  0  0  0  0  0  0  0  0  0
   -3.0808   -3.0026   -2.8829 H   0  0  0  0  0  0  0  0  0  0  0  0
   -2.7805   -1.3373   -2.3554 H   0  0  0  0  0  0  0  0  0  0  0  0
   -2.4405   -3.5938    0.3996 H   0  0  0  0  0  0  0  0  0  0  0  0
   -4.1068   -3.8289    2.2038 H   0  0  0  0  0  0  0  0  0  0  0  0
   -6.3903   -2.9411    1.9006 H   0  0  0  0  0  0  0  0  0  0  0  0
   -6.9976   -1.8219   -0.2158 H   0  0  0  0  0  0  0  0  0  0  0  0
   -5.3213   -1.5660   -1.9998 H   0  0  0  0  0  0  0  0  0  0  0  0
  1  2  1  0  0  0  0
  2  3  1  0  0  0  0
  3  4  1  0  0  0  0
  1  5  1  0  0  0  0
  4  5  1  0  0  0  0
  5  6  1  0  0  0  0
  6  7  4  0  0  0  0
  7  8  4  0  0  0  0
  8  9  4  0  0  0  0
  9 10  4  0  0  0  0
  6 11  4  0  0  0  0
 10 11  4  0  0  0  0
  5 12  1  0  0  0  0
 12 13  4  0  0  0  0
 13 14  4  0  0  0  0
 14 15  4  0  0  0  0
 15 16  4  0  0  0  0
 12 17  4  0  0  0  0
 16 17  4  0  0  0  0
  2 18  1  0  0  0  0
 18 19  1  0  0  0  0
  1 20  1  0  0  0  0
 19 20  1  0  0  0  0
 20 21  1  0  0  0  0
 21 22  4  0  0  0  0
 22 23  4  0  0  0  0
 23 24  4  0  0  0  0
 24 25  4  0  0  0  0
 21 26  4  0  0  0  0
 25 26  4  0  0  0  0
 20 27  1  0  0  0  0
 27 28  4  0  0  0  0
 28 29  4  0  0  0  0
 29 30  4  0  0  0  0
 30 31  4  0  0  0  0
 27 32  4  0  0  0  0
 31 32  4  0  0  0  0
  3 33  1  0  0  0  0
  3 34  1  0  0  0  0
  4 35  1  0  0  0  0
  4 36  1  0  0  0  0
  7 37  1  0  0  0  0
  8 38  1  0  0  0  0
  9 39  1  0  0  0  0
 10 40  1  0  0  0  0
 11 41  1  0  0  0  0
 13 42  1  0  0  0  0
 14 43  1  0  0  0  0
 15 44  1  0  0  0  0
 16 45  1  0  0  0  0
 17 46  1  0  0  0  0
 18 47  1  0  0  0  0
 18 48  1  0  0  0  0
 19 49  1  0  0  0  0
 19 50  1  0  0  0  0
 22 51  1  0  0  0  0
 23 52  1  0  0  0  0
 24 53  1  0  0  0  0
 25 54  1  0  0  0  0
 26 55  1  0  0  0  0
 28 56  1  0  0  0  0
 29 57  1  0  0  0  0
 30 58  1  0  0  0  0
 31 59  1  0  0  0  0
 32 60  1  0  0  0  0
  1 61  2  0  0  0  0
  1 62  1  0  0  0  0
 61 62  2  0  0  0  0
  1 63  1  0  0  0  0
 64 65  1  0  0  0  0
 65 66  1  0  0  0  0
 66 67  4  0  0  0  0
 67 68  4  0  0  0  0
 68 69  4  0  0  0  0
 69 70  4  0  0  0  0
 66 71  4  0  0  0  0
 70 71  4  0  0  0  0
 64 72  1  0  0  0  0
 65 73  1  0  0  0  0
 65 74  1  0  0  0  0
 67 75  1  0  0  0  0
 68 76  1  0  0  0  0
 69 77  1  0  0  0  0
 70 78  1  0  0  0  0
 71 79  1  0  0  0  0
M  END
