 xtb: 6.7.1 (edcfbbe)
          09132601183D

 75 78  0     0  0            999 V2000
    0.0720    0.2289   -0.5651 Ru  0  0  0  0  0  0  0  0  0  0  0  0
   -0.2318   -2.8019   -0.0164 N   0  0  0  0  0  0  0  0  0  0  0  0
    1.0790   -3.1662    0.4893 C   0  0  0  0  0  0  0  0  0  0  0  0
    2.2263   -2.4523   -0.2354 C   0  0  0  0  0  0  0  0  0  0  0  0
    2.2331   -0.5986   -0.2160 P   0  0  0  0  0  0  0  0  0  0  0  0
    3.6514   -0.2635   -1.4137 C   0  0  0  0  0  0  0  0  0  0  0  0
    4.7585   -1.3178   -1.4302 C   0  0  0  0  0  0  0  0  0  0  0  0
    3.1355   -0.0334   -2.8294 C   0  0  0  0  0  0  0  0  0  0  0  0
    3.1455   -0.1556    1.3610 C   0  0  0  0  0  0  0  0  0  0  0  0
    2.5297   -0.7909    2.6029 C   0  0  0  0  0  0  0  0  0  0  0  0
    3.1729    1.3632    1.5159 C   0  0  0  0  0  0  0  0  0  0  0  0
   -0.7098   -1.5110    0.4947 C   0  0  0  0  0  0  0  0  0  0  0  0
   -2.2148   -1.3631    0.1697 C   0  0  0  0  0  0  0  0  0  0  0  0
   -2.2589    0.4185   -0.2443 P   0  0  0  0  0  0  0  0  0  0  0  0
   -2.9602    1.3486    1.2192 C   0  0  0  0  0  0  0  0  0  0  0  0
   -2.5647    2.8139    1.0449 C   0  0  0  0  0  0  0  0  0  0  0  0
   -2.4711    0.8155    2.5597 C   0  0  0  0  0  0  0  0  0  0  0  0
   -3.6922    0.6111   -1.4390 C   0  0  0  0  0  0  0  0  0  0  0  0
   -4.8662   -0.2943   -1.0701 C   0  0  0  0  0  0  0  0  0  0  0  0
   -3.2426    0.3384   -2.8694 C   0  0  0  0  0  0  0  0  0  0  0  0
    1.1506   -2.9870    1.5759 H   0  0  0  0  0  0  0  0  0  0  0  0
    1.2146   -4.2427    0.3253 H   0  0  0  0  0  0  0  0  0  0  0  0
    3.1707   -2.8196    0.1744 H   0  0  0  0  0  0  0  0  0  0  0  0
    2.1703   -2.7194   -1.2967 H   0  0  0  0  0  0  0  0  0  0  0  0
    4.0811    0.6820   -1.0605 H   0  0  0  0  0  0  0  0  0  0  0  0
    5.6076   -0.9286   -1.9907 H   0  0  0  0  0  0  0  0  0  0  0  0
    4.4238   -2.2282   -1.9219 H   0  0  0  0  0  0  0  0  0  0  0  0
    5.1079   -1.5648   -0.4304 H   0  0  0  0  0  0  0  0  0  0  0  0
    3.9673    0.1371   -3.5121 H   0  0  0  0  0  0  0  0  0  0  0  0
    2.5743   -0.8967   -3.1870 H   0  0  0  0  0  0  0  0  0  0  0  0
    2.4894    0.8429   -2.8577 H   0  0  0  0  0  0  0  0  0  0  0  0
    4.1739   -0.5231    1.2459 H   0  0  0  0  0  0  0  0  0  0  0  0
    2.9859   -0.3706    3.4985 H   0  0  0  0  0  0  0  0  0  0  0  0
    2.6874   -1.8670    2.6193 H   0  0  0  0  0  0  0  0  0  0  0  0
    1.4610   -0.5832    2.6366 H   0  0  0  0  0  0  0  0  0  0  0  0
    2.1571    1.7392    1.6271 H   0  0  0  0  0  0  0  0  0  0  0  0
    3.7509    1.6415    2.3958 H   0  0  0  0  0  0  0  0  0  0  0  0
    3.6138    1.8502    0.6484 H   0  0  0  0  0  0  0  0  0  0  0  0
    0.1461    0.7142    0.8850 H   0  0  0  0  0  0  0  0  0  0  0  0
   -0.6118   -1.5248    1.6040 H   0  0  0  0  0  0  0  0  0  0  0  0
   -2.9014   -1.7093    0.9519 H   0  0  0  0  0  0  0  0  0  0  0  0
   -2.4311   -1.9102   -0.7539 H   0  0  0  0  0  0  0  0  0  0  0  0
   -4.0534    1.2585    1.1747 H   0  0  0  0  0  0  0  0  0  0  0  0
   -2.9308    3.2085    0.0973 H   0  0  0  0  0  0  0  0  0  0  0  0
   -2.9693    3.4222    1.8522 H   0  0  0  0  0  0  0  0  0  0  0  0
   -1.4777    2.8977    1.0470 H   0  0  0  0  0  0  0  0  0  0  0  0
   -2.8541    1.4387    3.3668 H   0  0  0  0  0  0  0  0  0  0  0  0
   -2.8066   -0.2055    2.7302 H   0  0  0  0  0  0  0  0  0  0  0  0
   -1.3828    0.8376    2.5964 H   0  0  0  0  0  0  0  0  0  0  0  0
   -4.0041    1.6612   -1.3608 H   0  0  0  0  0  0  0  0  0  0  0  0
   -4.6351   -1.3307   -1.3067 H   0  0  0  0  0  0  0  0  0  0  0  0
   -5.1163   -0.2281   -0.0128 H   0  0  0  0  0  0  0  0  0  0  0  0
   -5.7452   -0.0066   -1.6454 H   0  0  0  0  0  0  0  0  0  0  0  0
   -2.4686    1.0424   -3.1721 H   0  0  0  0  0  0  0  0  0  0  0  0
   -2.8552   -0.6768   -2.9601 H   0  0  0  0  0  0  0  0  0  0  0  0
   -4.0829    0.4399   -3.5558 H   0  0  0  0  0  0  0  0  0  0  0  0
    0.0475    0.3555   -2.4030 C   0  0  0  0  0  0  0  0  0  0  0  0
   -0.0118    0.4481   -3.5675 O   0  0  0  0  0  0  0  0  0  0  0  0
    0.5061    1.7321   -0.7279 H   0  0  0  0  0  0  0  0  0  0  0  0
   -2.2699   -3.1412   -2.7032 O   0  0  0  0  0  0  0  0  0  0  0  0
   -1.2353   -3.7689   -2.6468 C   0  0  0  0  0  0  0  0  0  0  0  0
   -0.0305   -3.4986   -3.4285 C   0  0  0  0  0  0  0  0  0  0  0  0
    1.1290   -4.2451   -3.2106 C   0  0  0  0  0  0  0  0  0  0  0  0
    2.2670   -3.9888   -3.9514 C   0  0  0  0  0  0  0  0  0  0  0  0
    2.2557   -2.9945   -4.9202 C   0  0  0  0  0  0  0  0  0  0  0  0
    1.1049   -2.2539   -5.1495 C   0  0  0  0  0  0  0  0  0  0  0  0
   -0.0331   -2.5022   -4.4073 C   0  0  0  0  0  0  0  0  0  0  0  0
   -0.8923   -3.5246    0.2755 H   0  0  0  0  0  0  0  0  0  0  0  0
   -0.1586   -0.8351   -1.6932 H   0  0  0  0  0  0  0  0  0  0  0  0
   -1.1497   -4.6467   -1.9777 H   0  0  0  0  0  0  0  0  0  0  0  0
    1.1288   -5.0181   -2.4551 H   0  0  0  0  0  0  0  0  0  0  0  0
    3.1659   -4.5630   -3.7787 H   0  0  0  0  0  0  0  0  0  0  0  0
    3.1471   -2.7955   -5.4971 H   0  0  0  0  0  0  0  0  0  0  0  0
    1.0992   -1.4768   -5.8991 H   0  0  0  0  0  0  0  0  0  0  0  0
   -0.9367   -1.9334   -4.5718 H   0  0  0  0  0  0  0  0  0  0  0  0
  2  3  1  0  0  0  0
  3  4  1  0  0  0  0
  1  5  1  0  0  0  0
  4  5  1  0  0  0  0
  5  6  1  0  0  0  0
  6  7  1  0  0  0  0
  6  8  1  0  0  0  0
  5  9  1  0  0  0  0
  9 10  1  0  0  0  0
  9 11  1  0  0  0  0
  1 12  1  0  0  0  0
  2 12  1  0  0  0  0
 12 13  1  0  0  0  0
  1 14  1  0  0  0  0
 13 14  1  0  0  0  0
 14 15  1  0  0  0  0
 15 16  1  0  0  0  0
 15 17  1  0  0  0  0
 14 18  1  0  0  0  0
 18 19  1  0  0  0  0
 18 20  1  0  0  0  0
  3 21  1  0  0  0  0
  3 22  1  0  0  0  0
  4 23  1  0  0  0  0
  4 24  1  0  0  0  0
  6 25  1  0  0  0  0
  7 26  1  0  0  0  0
  7 27  1  0  0  0  0
  7 28  1  0  0  0  0
  8 29  1  0  0  0  0
  8 30  1  0  0  0  0
  8 31  1  0  0  0  0
  9 32  1  0  0  0  0
 10 33  1  0  0  0  0
 10 34  1  0  0  0  0
 10 35  1  0  0  0  0
 11 36  1  0  0  0  0
 11 37  1  0  0  0  0
 11 38  1  0  0  0  0
  1 39  1  0  0  0  0
 12 40  1  0  0  0  0
 13 41  1  0  0  0  0
 13 42  1  0  0  0  0
 15 43  1  0  0  0  0
 16 44  1  0  0  0  0
 16 45  1  0  0  0  0
 16 46  1  0  0  0  0
 17 47  1  0  0  0  0
 17 48  1  0  0  0  0
 17 49  1  0  0  0  0
 18 50  1  0  0  0  0
 19 51  1  0  0  0  0
 19 52  1  0  0  0  0
 19 53  1  0  0  0  0
 20 54  1  0  0  0  0
 20 55  1  0  0  0  0
 20 56  1  0  0  0  0
  1 57  1  0  0  0  0
  1 58  1  0  0  0  0
 57 58  2  0  0  0  0
  1 59  1  0  0  0  0
 60 61  2  0  0  0  0
 61 62  1  0  0  0  0
 62 63  4  0  0  0  0
 63 64  4  0  0  0  0
 64 65  4  0  0  0  0
 65 66  4  0  0  0  0
 62 67  4  0  0  0  0
 66 67  4  0  0  0  0
  2 68  1  0  0  0  0
  1 69  1  0  0  0  0
 57 69  1  0  0  0  0
 61 70  1  0  0  0  0
 63 71  1  0  0  0  0
 64 72  1  0  0  0  0
 65 73  1  0  0  0  0
 66 74  1  0  0  0  0
 67 75  1  0  0  0  0
M  END
